
     RDKit          3D

 32 37  0  0  0  0  0  0  0  0999 V2000
   -9.0584   62.8707   31.0039 O   0  0  0  0  0  0  0  0  0  0  0  0
   -8.3753   61.6895   30.9131 N   0  0  0  0  0  0  0  0  0  0  0  0
   -7.0976   61.5899   30.9943 C   0  0  0  0  0  0  0  0  0  0  0  0
   -6.1526   62.6518   31.2929 C   0  0  0  0  0  0  0  0  0  0  0  0
   -6.4304   63.9716   31.5557 C   0  0  0  0  0  0  0  0  0  0  0  0
   -5.4103   64.8642   31.8236 C   0  0  0  0  0  0  0  0  0  0  0  0
   -4.1229   64.3990   31.8199 C   0  0  0  0  0  0  0  0  0  0  0  0
   -3.8662   63.0417   31.5475 C   0  0  0  0  0  0  0  0  0  0  0  0
   -4.8628   62.1540   31.2824 C   0  0  0  0  0  0  0  0  0  0  0  0
   -4.9485   60.7535   30.9753 C   0  0  0  0  0  0  0  0  0  0  0  0
   -6.2829   60.3885   30.7976 C   0  0  0  0  0  0  0  0  0  0  0  0
   -6.6305   59.0981   30.4894 C   0  0  0  0  0  0  0  0  0  0  0  0
   -8.0088   58.7083   30.3245 N   0  0  0  0  0  0  0  0  0  0  0  0
   -8.4496   57.3507   30.1791 C   0  0  0  0  0  0  0  0  0  0  0  0
   -9.7473   57.0900   30.8372 C   0  0  0  0  0  0  0  0  0  0  0  0
  -10.4298   58.2145   31.4030 N   0  0  0  0  0  0  0  0  0  0  0  0
  -11.7571   58.0153   31.8826 C   0  0  0  0  0  0  0  0  0  0  0  0
  -12.5861   59.0659   32.2164 C   0  0  0  0  0  0  0  0  0  0  0  0
  -13.8584   58.8438   32.6754 C   0  0  0  0  0  0  0  0  0  0  0  0
  -14.3101   57.5679   32.8037 C   0  0  0  0  0  0  0  0  0  0  0  0
  -13.4708   56.5353   32.4667 C   0  0  0  0  0  0  0  0  0  0  0  0
  -12.2359   56.7801   32.0220 N   0  0  0  0  0  0  0  0  0  0  0  0
   -9.8649   59.5447   31.5232 C   0  0  0  0  0  0  0  0  0  0  0  0
   -8.9869   59.7681   30.2987 C   0  0  0  0  0  0  0  0  0  0  0  0
   -5.6778   58.1672   30.3540 N   0  0  0  0  0  0  0  0  0  0  0  0
   -4.3907   58.4996   30.5208 C   0  0  0  0  0  0  0  0  0  0  0  0
   -3.4273   57.5078   30.3732 C   0  0  0  0  0  0  0  0  0  0  0  0
   -2.0925   57.7613   30.5264 C   0  0  0  0  0  0  0  0  0  0  0  0
   -1.6974   59.0401   30.8363 C   0  0  0  0  0  0  0  0  0  0  0  0
    0.1830   59.3960   31.0519 Br  0  0  0  0  0  0  0  0  0  0  0  0
   -2.6213   60.0516   30.9911 C   0  0  0  0  0  0  0  0  0  0  0  0
   -3.9550   59.7834   30.8347 C   0  0  0  0  0  0  0  0  0  0  0  0
  1  2  1  0
  2  3  2  0
  3  4  1  0
  4  5  2  0
  5  6  1  0
  6  7  2  0
  7  8  1  0
  8  9  2  0
  9 10  1  0
 10 11  2  0
 11 12  1  0
 12 13  1  0
 13 14  1  0
 14 15  1  0
 15 16  1  0
 16 17  1  0
 17 18  2  0
 18 19  1  0
 19 20  2  0
 20 21  1  0
 21 22  2  0
 16 23  1  0
 23 24  1  0
 12 25  2  0
 25 26  1  0
 26 27  2  0
 27 28  1  0
 28 29  2  0
 29 30  1  0
 29 31  1  0
 31 32  2  0
 11  3  1  0
 24 13  1  0
 32 26  1  0
  9  4  1  0
 32 10  1  0
 22 17  1  0
M  END
$$$$
