
     RDKit          3D

 27 30  0  0  0  0  0  0  0  0999 V2000
   35.6259   81.6383   45.3165 C   0  0  0  0  0  0  0  0  0  0  0  0
   36.7756   81.3154   46.2029 C   0  0  0  0  0  0  0  0  0  0  0  0
   37.7301   80.6441   45.6910 O   0  0  0  0  0  0  0  0  0  0  0  0
   36.8311   81.7235   47.5570 N   0  0  0  0  0  0  0  0  0  0  0  0
   37.9244   81.2706   48.3835 C   0  0  0  0  0  0  0  0  0  0  0  0
   38.0270   82.0839   49.6731 C   0  0  0  0  0  0  0  0  0  0  0  0
   36.6636   82.0249   50.2924 C   0  0  0  0  0  0  0  0  0  0  0  0
   35.5546   82.2689   49.5186 C   0  0  0  0  0  0  0  0  0  0  0  0
   34.3980   82.1599   50.3022 C   0  0  0  0  0  0  0  0  0  0  0  0
   33.1297   82.3489   49.8108 O   0  0  0  0  0  0  0  0  0  0  0  0
   31.9496   82.4423   50.4792 C   0  0  0  0  0  0  0  0  0  0  0  0
   31.8035   83.2445   51.5728 C   0  0  0  0  0  0  0  0  0  0  0  0
   30.5762   83.3008   52.2158 C   0  0  0  0  0  0  0  0  0  0  0  0
   29.5206   82.5536   51.7517 C   0  0  0  0  0  0  0  0  0  0  0  0
   28.3221   82.6222   52.3971 F   0  0  0  0  0  0  0  0  0  0  0  0
   29.6705   81.7486   50.6528 C   0  0  0  0  0  0  0  0  0  0  0  0
   30.8730   81.6765   50.0012 C   0  0  0  0  0  0  0  0  0  0  0  0
   31.0420   80.8859   48.9119 F   0  0  0  0  0  0  0  0  0  0  0  0
   34.8672   81.8522   51.5243 N   0  0  0  0  0  0  0  0  0  0  0  0
   36.1882   81.7724   51.5239 N   0  0  0  0  0  0  0  0  0  0  0  0
   36.9854   81.4633   52.6647 C   0  0  0  0  0  0  0  0  0  0  0  0
   38.3612   81.4296   52.5192 C   0  0  0  0  0  0  0  0  0  0  0  0
   39.1717   81.1368   53.5890 C   0  0  0  0  0  0  0  0  0  0  0  0
   38.6551   80.8650   54.8478 C   0  0  0  0  0  0  0  0  0  0  0  0
   37.2871   80.9031   54.9728 C   0  0  0  0  0  0  0  0  0  0  0  0
   36.4506   81.1961   53.9080 C   0  0  0  0  0  0  0  0  0  0  0  0
   35.7962   82.5820   48.0838 C   0  0  0  0  0  0  0  0  0  0  0  0
  1  2  1  0
  2  3  2  0
  2  4  1  0
  4  5  1  0
  5  6  1  0
  6  7  1  0
  7  8  2  0
  8  9  1  0
  9 10  1  0
 10 11  1  0
 11 12  2  0
 12 13  1  0
 13 14  2  0
 14 15  1  0
 14 16  1  0
 16 17  2  0
 17 18  1  0
  9 19  2  0
 19 20  1  0
 20 21  1  0
 21 22  2  0
 22 23  1  0
 23 24  2  0
 24 25  1  0
 25 26  2  0
  8 27  1  0
 27  4  1  0
 20  7  1  0
 26 21  1  0
 17 11  1  0
M  END
$$$$
