
     RDKit          3D

 33 37  0  0  0  0  0  0  0  0999 V2000
   11.2785  101.9644   57.3738 O   0  0  0  0  0  0  0  0  0  0  0  0
   11.8817  100.8419   57.2578 C   0  0  0  0  0  0  0  0  0  0  0  0
   12.6145  100.6535   56.0211 C   0  0  0  0  0  0  0  0  0  0  0  0
   13.8104  101.3502   55.9049 C   0  0  0  0  0  0  0  0  0  0  0  0
   14.5727  101.2245   54.7637 C   0  0  0  0  0  0  0  0  0  0  0  0
   14.1690  100.4088   53.7157 C   0  0  0  0  0  0  0  0  0  0  0  0
   14.9591  100.2621   52.5085 C   0  0  0  0  0  0  0  0  0  0  0  0
   14.6630   99.3069   51.5747 C   0  0  0  0  0  0  0  0  0  0  0  0
   15.4230   99.1785   50.4306 C   0  0  0  0  0  0  0  0  0  0  0  0
   16.4954  100.0384   50.2450 C   0  0  0  0  0  0  0  0  0  0  0  0
   16.8184  101.0089   51.1656 C   0  0  0  0  0  0  0  0  0  0  0  0
   16.0239  101.0999   52.3022 C   0  0  0  0  0  0  0  0  0  0  0  0
   12.9815   99.7403   53.8740 C   0  0  0  0  0  0  0  0  0  0  0  0
   12.1886   99.8436   55.0099 C   0  0  0  0  0  0  0  0  0  0  0  0
   11.7907   99.9119   58.3007 N   0  0  0  0  0  0  0  0  0  0  0  0
   10.7503   99.9972   59.2908 C   0  0  0  0  0  0  0  0  0  0  0  0
   10.7993   98.7911   60.2187 C   0  0  0  0  0  0  0  0  0  0  0  0
   10.9347   97.4903   59.4633 C   0  0  0  0  0  0  0  0  0  0  0  0
   11.2462   96.4418   60.4253 N   0  0  0  0  0  0  0  0  0  0  0  0
   12.5393   95.8419   60.1469 C   0  0  0  0  0  0  0  0  0  0  0  0
   12.7012   94.7251   61.1918 C   0  0  0  0  0  0  0  0  0  0  0  0
   13.1097   95.4463   62.4624 C   0  0  0  0  0  0  0  0  0  0  0  0
   13.0543   94.5806   63.6616 C   0  0  0  0  0  0  0  0  0  0  0  0
   12.0455   94.7081   64.6063 C   0  0  0  0  0  0  0  0  0  0  0  0
   12.0125   93.8859   65.7234 C   0  0  0  0  0  0  0  0  0  0  0  0
   12.9732   92.9164   65.9386 C   0  0  0  0  0  0  0  0  0  0  0  0
   13.9781   92.7797   65.0101 C   0  0  0  0  0  0  0  0  0  0  0  0
   14.0061   93.5961   63.9061 C   0  0  0  0  0  0  0  0  0  0  0  0
   12.4096   96.7506   62.5987 C   0  0  0  0  0  0  0  0  0  0  0  0
   11.1735   96.9309   61.7848 C   0  0  0  0  0  0  0  0  0  0  0  0
   11.9602   97.5391   58.3845 C   0  0  0  0  0  0  0  0  0  0  0  0
   12.9160   96.5245   58.4392 O   0  0  0  0  0  0  0  0  0  0  0  0
   12.7438   98.8448   58.4024 C   0  0  0  0  0  0  0  0  0  0  0  0
  1  2  2  0
  2  3  1  0
  3  4  2  0
  4  5  1  0
  5  6  2  0
  6  7  1  0
  7  8  2  0
  8  9  1  0
  9 10  2  0
 10 11  1  0
 11 12  2  0
  6 13  1  0
 13 14  2  0
  2 15  1  0
 15 16  1  0
 16 17  1  0
 17 18  1  0
 18 19  1  0
 19 20  1  0
 20 21  1  0
 21 22  1  0
 22 23  1  0
 23 24  2  0
 24 25  1  0
 25 26  2  0
 26 27  1  0
 27 28  2  0
 22 29  1  0
 29 30  1  0
 18 31  1  0
 31 32  1  0
 31 33  1  0
 14  3  1  0
 33 15  1  0
 12  7  1  0
 30 19  1  0
 28 23  1  0
M  END
$$$$
