
     RDKit          3D

 26 29  0  0  0  0  0  0  0  0999 V2000
   34.6227   83.1968   47.6015 O   0  0  0  0  0  0  0  0  0  0  0  0
   34.1549   81.9014   47.9554 C   0  0  0  0  0  0  0  0  0  0  0  0
   33.2087   81.4817   46.9593 C   0  0  0  0  0  0  0  0  0  0  0  0
   33.1820   80.2880   46.2718 C   0  0  0  0  0  0  0  0  0  0  0  0
   32.2550   79.9212   45.3392 C   0  0  0  0  0  0  0  0  0  0  0  0
   31.2429   80.8137   45.0429 C   0  0  0  0  0  0  0  0  0  0  0  0
   30.0182   80.3857   43.8451 Cl  0  0  0  0  0  0  0  0  0  0  0  0
   31.2116   82.0278   45.6956 C   0  0  0  0  0  0  0  0  0  0  0  0
   32.1777   82.3445   46.6308 C   0  0  0  0  0  0  0  0  0  0  0  0
   35.4637   81.0681   47.8265 C   0  0  0  0  0  0  0  0  0  0  0  0
   36.2245   81.7745   48.9463 C   0  0  0  0  0  0  0  0  0  0  0  0
   35.1221   81.8374   49.9765 C   0  0  0  0  0  0  0  0  0  0  0  0
   35.4312   81.8033   51.3981 C   0  0  0  0  0  0  0  0  0  0  0  0
   34.7238   81.0064   52.2848 C   0  0  0  0  0  0  0  0  0  0  0  0
   35.0169   80.9784   53.6299 C   0  0  0  0  0  0  0  0  0  0  0  0
   36.0348   81.7518   54.1380 C   0  0  0  0  0  0  0  0  0  0  0  0
   36.7136   82.5202   53.2729 N   0  0  0  0  0  0  0  0  0  0  0  0
   36.4404   82.5587   51.9574 C   0  0  0  0  0  0  0  0  0  0  0  0
   33.9259   81.9107   49.3539 C   0  0  0  0  0  0  0  0  0  0  0  0
   32.7578   82.0508   50.2260 C   0  0  0  0  0  0  0  0  0  0  0  0
   32.8030   83.1049   51.1443 C   0  0  0  0  0  0  0  0  0  0  0  0
   31.7589   83.3051   52.0148 C   0  0  0  0  0  0  0  0  0  0  0  0
   30.6328   82.4733   52.0109 C   0  0  0  0  0  0  0  0  0  0  0  0
   29.3140   82.7620   53.1406 Cl  0  0  0  0  0  0  0  0  0  0  0  0
   30.5949   81.4426   51.1089 C   0  0  0  0  0  0  0  0  0  0  0  0
   31.6484   81.2497   50.2390 C   0  0  0  0  0  0  0  0  0  0  0  0
  1  2  1  0
  2  3  1  0
  3  4  2  0
  4  5  1  0
  5  6  2  0
  6  7  1  0
  6  8  1  0
  8  9  2  0
  2 10  1  0
 10 11  1  0
 11 12  1  0
 12 13  1  0
 13 14  2  0
 14 15  1  0
 15 16  2  0
 16 17  1  0
 17 18  2  0
 12 19  2  0
 19 20  1  0
 20 21  2  0
 21 22  1  0
 22 23  2  0
 23 24  1  0
 23 25  1  0
 25 26  2  0
 19  2  1  0
 26 20  1  0
  9  3  1  0
 18 13  1  0
M  END
$$$$
