
     RDKit          3D

 16 18  0  0  0  0  0  0  0  0999 V2000
   12.7705   98.7967   51.2276 C   0  0  0  0  0  0  0  0  0  0  0  0
   12.8827   98.9466   52.6147 O   0  0  0  0  0  0  0  0  0  0  0  0
   13.7089   99.8018   53.2963 C   0  0  0  0  0  0  0  0  0  0  0  0
   14.5406  100.6031   52.5773 C   0  0  0  0  0  0  0  0  0  0  0  0
   15.4227  101.5087   53.1267 C   0  0  0  0  0  0  0  0  0  0  0  0
   15.4452  101.5893   54.5058 C   0  0  0  0  0  0  0  0  0  0  0  0
   14.6021  100.7773   55.2429 C   0  0  0  0  0  0  0  0  0  0  0  0
   14.3325  100.5810   56.9864 S   0  0  0  0  0  0  0  0  0  0  0  0
   13.0033   99.2446   56.7313 C   0  0  0  0  0  0  0  0  0  0  0  0
   12.3711   98.6499   57.8371 N   0  0  0  0  0  0  0  0  0  0  0  0
   12.5288   99.1207   59.2000 C   0  0  0  0  0  0  0  0  0  0  0  0
   11.4399   98.4235   60.0159 C   0  0  0  0  0  0  0  0  0  0  0  0
   10.4760   97.9929   58.9237 C   0  0  0  0  0  0  0  0  0  0  0  0
   11.4711   97.5070   57.8578 C   0  0  0  0  0  0  0  0  0  0  0  0
   13.0093   99.2019   55.5729 N   0  0  0  0  0  0  0  0  0  0  0  0
   13.7167   99.8699   54.6969 C   0  0  0  0  0  0  0  0  0  0  0  0
  1  2  1  0
  2  3  1  0
  3  4  2  0
  4  5  1  0
  5  6  2  0
  6  7  1  0
  7  8  1  0
  8  9  1  0
  9 10  1  0
 10 11  1  0
 11 12  1  0
 12 13  1  0
 13 14  1  0
  9 15  2  0
 15 16  1  0
 16  3  1  0
 16  7  2  0
 14 10  1  0
M  END
$$$$
