
     RDKit          3D

 25 27  0  0  0  0  0  0  0  0999 V2000
   37.8981   81.8406   50.1671 O   0  0  0  0  0  0  0  0  0  0  0  0
   37.8349   82.5482   51.2036 C   0  0  0  0  0  0  0  0  0  0  0  0
   39.1079   83.0560   51.7605 C   0  0  0  0  0  0  0  0  0  0  0  0
   39.6018   82.2254   52.8100 N   0  0  0  0  0  0  0  0  0  0  0  0
   39.9919   80.8659   52.5865 C   0  0  0  0  0  0  0  0  0  0  0  0
   41.1882   80.6596   52.3378 O   0  0  0  0  0  0  0  0  0  0  0  0
   39.0214   79.7684   52.6489 C   0  0  0  0  0  0  0  0  0  0  0  0
   38.4183   79.6660   54.0514 C   0  0  0  0  0  0  0  0  0  0  0  0
   37.2961   78.6727   53.9742 C   0  0  0  0  0  0  0  0  0  0  0  0
   37.7095   77.3228   53.4848 C   0  0  0  0  0  0  0  0  0  0  0  0
   38.6382   77.3585   52.3114 C   0  0  0  0  0  0  0  0  0  0  0  0
   39.6764   78.4250   52.3795 C   0  0  0  0  0  0  0  0  0  0  0  0
   36.5814   82.8178   51.7726 N   0  0  0  0  0  0  0  0  0  0  0  0
   35.3189   82.4362   51.1217 C   0  0  0  0  0  0  0  0  0  0  0  0
   34.1644   82.4053   51.3395 N   0  0  0  0  0  0  0  0  0  0  0  0
   33.1948   82.0058   50.5676 C   0  0  0  0  0  0  0  0  0  0  0  0
   31.7638   82.0066   50.9374 C   0  0  0  0  0  0  0  0  0  0  0  0
   30.8030   81.5172   50.1003 C   0  0  0  0  0  0  0  0  0  0  0  0
   29.4719   81.5369   50.4865 C   0  0  0  0  0  0  0  0  0  0  0  0
   29.1108   82.0469   51.7092 C   0  0  0  0  0  0  0  0  0  0  0  0
   27.7751   82.0372   52.0315 F   0  0  0  0  0  0  0  0  0  0  0  0
   30.0550   82.5475   52.5755 C   0  0  0  0  0  0  0  0  0  0  0  0
   31.3678   82.5109   52.1566 C   0  0  0  0  0  0  0  0  0  0  0  0
   33.6001   81.5580   49.3187 C   0  0  0  0  0  0  0  0  0  0  0  0
   35.3914   81.7741   49.4108 S   0  0  0  0  0  0  0  0  0  0  0  0
  1  2  2  0
  2  3  1  0
  3  4  1  0
  4  5  1  0
  5  6  2  0
  5  7  1  0
  7  8  1  0
  8  9  1  0
  9 10  1  0
 10 11  1  0
 11 12  1  0
  2 13  1  0
 13 14  1  0
 14 15  2  0
 15 16  1  0
 16 17  1  0
 17 18  2  0
 18 19  1  0
 19 20  2  0
 20 21  1  0
 20 22  1  0
 22 23  2  0
 16 24  2  0
 24 25  1  0
 12  7  1  0
 25 14  1  0
 23 17  1  0
M  END
$$$$
