
     RDKit          3D

 29 33  0  0  0  0  0  0  0  0999 V2000
   11.2726   97.2792   59.7257 O   0  0  0  0  0  0  0  0  0  0  0  0
   12.5202   97.3176   59.8411 C   0  0  0  0  0  0  0  0  0  0  0  0
   13.2724   98.3670   59.1465 C   0  0  0  0  0  0  0  0  0  0  0  0
   12.5354   98.7463   57.8634 C   0  0  1  0  0  0  0  0  0  0  0  0
   11.8700  100.0586   58.0375 C   0  0  0  0  0  0  0  0  0  0  0  0
   10.7839  100.3906   58.8556 C   0  0  0  0  0  0  0  0  0  0  0  0
   10.1163   99.4017   59.6574 C   0  0  0  0  0  0  0  0  0  0  0  0
    8.7890   99.5245   59.9724 C   0  0  0  0  0  0  0  0  0  0  0  0
    8.1474   98.5427   60.7423 C   0  0  0  0  0  0  0  0  0  0  0  0
    8.8186   97.4387   61.2020 C   0  0  0  0  0  0  0  0  0  0  0  0
   10.1742   97.3077   60.8844 C   0  0  0  0  0  0  0  0  0  0  0  0
   10.7856   98.2690   60.1350 C   0  0  0  0  0  0  0  0  0  0  0  0
   10.3683  101.7123   58.8485 C   0  0  0  0  0  0  0  0  0  0  0  0
   10.9689  102.6941   58.0839 C   0  0  0  0  0  0  0  0  0  0  0  0
   12.0476  102.3476   57.2756 C   0  0  0  0  0  0  0  0  0  0  0  0
   12.4780  101.0203   57.2717 C   0  0  0  0  0  0  0  0  0  0  0  0
   13.5467  100.3261   56.5673 C   0  0  0  0  0  0  0  0  0  0  0  0
   14.5639  100.5536   55.6436 C   0  0  0  0  0  0  0  0  0  0  0  0
   15.1906   99.3959   55.4251 N   0  0  0  0  0  0  0  0  0  0  0  0
   14.5987   98.4311   56.1879 C   0  0  0  0  0  0  0  0  0  0  0  0
   13.5986   99.0282   56.8751 N   0  0  0  0  0  0  0  0  0  0  0  0
   13.1126   96.3235   60.6491 N   0  0  0  0  0  0  0  0  0  0  0  0
   12.4083   95.4680   61.5723 C   0  0  0  0  0  0  0  0  0  0  0  0
   13.2766   94.7081   62.4848 C   0  0  0  0  0  0  0  0  0  0  0  0
   14.6478   94.7046   62.3652 C   0  0  0  0  0  0  0  0  0  0  0  0
   15.4626   93.9782   63.2257 C   0  0  0  0  0  0  0  0  0  0  0  0
   14.9202   93.2270   64.2413 C   0  0  0  0  0  0  0  0  0  0  0  0
   13.5498   93.2182   64.3770 C   0  0  0  0  0  0  0  0  0  0  0  0
   12.7467   93.9357   63.5268 C   0  0  0  0  0  0  0  0  0  0  0  0
  1  2  2  0
  2  3  1  0
  4  3  1  1
  4  5  1  0
  5  6  1  0
  6  7  1  0
  7  8  2  0
  8  9  1  0
  9 10  2  0
 10 11  1  0
 11 12  2  0
  6 13  2  0
 13 14  1  0
 14 15  2  0
 15 16  1  0
 16 17  1  0
 17 18  2  0
 18 19  1  0
 19 20  2  0
 20 21  1  0
  2 22  1  0
 22 23  1  0
 23 24  1  0
 24 25  2  0
 25 26  1  0
 26 27  2  0
 27 28  1  0
 28 29  2  0
 21  4  1  0
 29 24  1  0
 16  5  2  0
 21 17  1  0
 12  7  1  0
M  END
$$$$
