
     RDKit          3D

 30 33  0  0  0  0  0  0  0  0999 V2000
   14.2162   97.2969   55.3702 C   0  0  0  0  0  0  0  0  0  0  0  0
   12.9228   97.7442   54.8696 N   0  0  0  0  0  0  0  0  0  0  0  0
   12.5921   98.9837   55.5385 C   0  0  1  0  0  0  0  0  0  0  0  0
   11.0911   99.2680   55.4000 C   0  0  0  0  0  0  0  0  0  0  0  0
   12.9700   98.9902   56.9746 C   0  0  0  0  0  0  0  0  0  0  0  0
   13.1499  100.1361   57.5077 O   0  0  0  0  0  0  0  0  0  0  0  0
   13.1382   97.8331   57.7733 N   0  0  0  0  0  0  0  0  0  0  0  0
   12.7522   97.8907   59.1491 C   0  0  1  0  0  0  0  0  0  0  0  0
   11.2682   98.0125   59.3870 C   0  0  0  0  0  0  0  0  0  0  0  0
   11.0100   98.6592   60.7247 C   0  0  0  0  0  0  0  0  0  0  0  0
   11.0884   97.7166   61.8909 C   0  0  0  0  0  0  0  0  0  0  0  0
   12.5041   97.4964   62.2813 C   0  0  1  0  0  0  0  0  0  0  0  0
   12.7179   96.9046   63.6454 C   0  0  0  0  0  0  0  0  0  0  0  0
   13.9246   96.0297   63.3815 C   0  0  1  0  0  0  0  0  0  0  0  0
   14.1485   94.9753   64.3943 C   0  0  0  0  0  0  0  0  0  0  0  0
   12.9020   94.2027   64.6120 C   0  0  0  0  0  0  0  0  0  0  0  0
   12.1388   93.8468   63.4922 N   0  0  0  0  0  0  0  0  0  0  0  0
   10.7622   93.6509   63.7909 C   0  0  0  0  0  0  0  0  0  0  0  0
   10.5377   93.1209   65.1898 C   0  0  0  0  0  0  0  0  0  0  0  0
    9.9432   91.7655   65.1723 C   0  0  0  0  0  0  0  0  0  0  0  0
   10.7166   90.6285   65.1978 C   0  0  0  0  0  0  0  0  0  0  0  0
   10.1231   89.3633   65.1818 C   0  0  0  0  0  0  0  0  0  0  0  0
    8.7594   89.2508   65.1403 C   0  0  0  0  0  0  0  0  0  0  0  0
    7.9688   90.3591   65.1143 C   0  0  0  0  0  0  0  0  0  0  0  0
    8.5774   91.6086   65.1307 C   0  0  0  0  0  0  0  0  0  0  0  0
   12.4856   94.3143   62.2236 C   0  0  0  0  0  0  0  0  0  0  0  0
   13.5032   95.3646   62.0893 C   0  0  1  0  0  0  0  0  0  0  0  0
   13.0854   96.5323   61.3343 N   0  0  0  0  0  0  0  0  0  0  0  0
   13.2096   96.7270   59.9398 C   0  0  0  0  0  0  0  0  0  0  0  0
   13.7723   95.7992   59.3256 O   0  0  0  0  0  0  0  0  0  0  0  0
  1  2  1  0
  2  3  1  0
  3  4  1  1
  3  5  1  0
  5  6  2  0
  5  7  1  0
  8  7  1  6
  8  9  1  0
  9 10  1  0
 10 11  1  0
 12 11  1  6
 12 13  1  0
 14 13  1  1
 14 15  1  0
 15 16  1  0
 16 17  1  0
 17 18  1  0
 18 19  1  0
 19 20  1  0
 20 21  2  0
 21 22  1  0
 22 23  2  0
 23 24  1  0
 24 25  2  0
 17 26  1  0
 27 26  1  1
 27 28  1  0
 28 29  1  0
 29 30  2  0
 29  8  1  0
 28 12  1  0
 27 14  1  0
 25 20  1  0
M  END
$$$$
