
     RDKit          3D

 40 45  0  0  0  0  0  0  0  0999 V2000
   30.3490   81.1946   51.0955 C   0  0  0  0  0  0  0  0  0  0  0  0
   31.6880   81.8210   51.2508 C   0  0  0  0  0  0  0  0  0  0  0  0
   31.8665   83.1548   50.9278 C   0  0  0  0  0  0  0  0  0  0  0  0
   33.1116   83.7127   51.0790 C   0  0  0  0  0  0  0  0  0  0  0  0
   34.1532   82.9439   51.5452 C   0  0  0  0  0  0  0  0  0  0  0  0
   35.4516   83.1899   51.7950 N   0  0  0  0  0  0  0  0  0  0  0  0
   36.0859   82.0778   52.2543 C   0  0  0  0  0  0  0  0  0  0  0  0
   35.1430   81.0742   52.3019 C   0  0  0  0  0  0  0  0  0  0  0  0
   33.9620   81.6188   51.8628 C   0  0  0  0  0  0  0  0  0  0  0  0
   32.7052   81.0207   51.7198 C   0  0  0  0  0  0  0  0  0  0  0  0
   35.4767   79.6945   52.8054 C   0  0  0  0  0  0  0  0  0  0  0  0
   36.3531   79.9767   54.0390 C   0  0  0  0  0  0  0  0  0  0  0  0
   37.5357   80.6809   53.6428 N   0  0  0  0  0  0  0  0  0  0  0  0
   38.8640   80.3651   54.0950 C   0  0  0  0  0  0  0  0  0  0  0  0
   38.9442   79.8630   55.2289 O   0  0  0  0  0  0  0  0  0  0  0  0
   40.0471   80.6126   53.2823 C   0  0  0  0  0  0  0  0  0  0  0  0
   41.1244   81.4087   53.9617 C   0  0  0  0  0  0  0  0  0  0  0  0
   40.8145   82.7959   54.2507 C   0  0  0  0  0  0  0  0  0  0  0  0
   39.6496   83.2180   54.3345 O   0  0  0  0  0  0  0  0  0  0  0  0
   41.8715   83.7275   54.4498 N   0  0  0  0  0  0  0  0  0  0  0  0
   41.5654   85.1191   54.7348 C   0  0  0  0  0  0  0  0  0  0  0  0
   42.5609   86.0397   54.0620 C   0  0  0  0  0  0  0  0  0  0  0  0
   43.5883   86.4864   54.9513 N   0  0  0  0  0  0  0  0  0  0  0  0
   44.6410   87.0971   54.1704 C   0  0  0  0  0  0  0  0  0  0  0  0
   44.2786   88.4839   53.6977 C   0  0  0  0  0  0  0  0  0  0  0  0
   43.8924   89.3095   54.7463 O   0  0  0  0  0  0  0  0  0  0  0  0
   42.7880   88.7763   55.3709 C   0  0  0  0  0  0  0  0  0  0  0  0
   43.1518   87.4277   55.9384 C   0  0  0  0  0  0  0  0  0  0  0  0
   39.7869   81.2588   51.9533 C   0  0  0  0  0  0  0  0  0  0  0  0
   38.3334   81.3250   51.5507 C   0  0  0  0  0  0  0  0  0  0  0  0
   38.2178   81.9903   50.2675 C   0  0  0  0  0  0  0  0  0  0  0  0
   37.6363   83.1000   50.0871 O   0  0  0  0  0  0  0  0  0  0  0  0
   38.7772   81.3957   49.1043 N   0  0  0  0  0  0  0  0  0  0  0  0
   40.0924   80.7383   49.1648 C   0  0  0  0  0  0  0  0  0  0  0  0
   40.1229   79.7427   48.0269 C   0  0  0  0  0  0  0  0  0  0  0  0
   40.1405   80.4178   46.8121 O   0  0  0  0  0  0  0  0  0  0  0  0
   39.3462   81.5480   46.8139 C   0  0  0  0  0  0  0  0  0  0  0  0
   38.1664   81.3784   47.7950 C   0  0  0  0  0  0  0  0  0  0  0  0
   37.4619   81.7901   52.6709 C   0  0  0  0  0  0  0  0  0  0  0  0
   38.0116   83.0202   53.3624 C   0  0  0  0  0  0  0  0  0  0  0  0
  1  2  1  0
  2  3  2  0
  3  4  1  0
  4  5  2  0
  5  6  1  0
  6  7  1  0
  7  8  2  0
  8  9  1  0
  9 10  2  0
  8 11  1  0
 11 12  1  0
 12 13  1  0
 13 14  1  0
 14 15  2  0
 14 16  1  0
 16 17  1  0
 17 18  1  0
 18 19  2  0
 18 20  1  0
 20 21  1  0
 21 22  1  0
 22 23  1  0
 23 24  1  0
 24 25  1  0
 25 26  1  0
 26 27  1  0
 27 28  1  0
 16 29  1  0
 29 30  1  0
 30 31  1  0
 31 32  2  0
 31 33  1  0
 33 34  1  0
 34 35  1  0
 35 36  1  0
 36 37  1  0
 37 38  1  0
 30 39  1  0
 39 40  1  0
 10  2  1  0
 39 13  1  0
  9  5  1  0
 28 23  1  0
 38 33  1  0
 39  7  1  0
M  END
$$$$
