
     RDKit          3D

 23 25  0  0  0  0  0  0  0  0999 V2000
    9.7210   99.4541   61.0839 C   0  0  0  0  0  0  0  0  0  0  0  0
   10.6744   98.8188   60.2677 O   0  0  0  0  0  0  0  0  0  0  0  0
   11.1673   99.4828   59.1813 C   0  0  0  0  0  0  0  0  0  0  0  0
   10.5574  100.6784   58.7845 C   0  0  0  0  0  0  0  0  0  0  0  0
   11.0336  101.3660   57.6814 C   0  0  0  0  0  0  0  0  0  0  0  0
   12.0979  100.9137   56.9490 C   0  0  0  0  0  0  0  0  0  0  0  0
   12.5521  101.6464   55.8285 N   0  0  0  0  0  0  0  0  0  0  0  0
   12.6981   99.7413   57.3367 C   0  0  0  0  0  0  0  0  0  0  0  0
   13.7602   99.2819   56.5646 C   0  0  0  0  0  0  0  0  0  0  0  0
   14.3335   98.0929   56.9501 C   0  0  0  0  0  0  0  0  0  0  0  0
   13.8775   97.4479   58.0030 N   0  0  0  0  0  0  0  0  0  0  0  0
   12.8272   97.8757   58.7919 C   0  0  0  0  0  0  0  0  0  0  0  0
   12.5206   96.9834   59.8889 C   0  0  0  0  0  0  0  0  0  0  0  0
   11.6343   97.3783   60.7398 O   0  0  0  0  0  0  0  0  0  0  0  0
   13.0560   95.7088   60.1586 N   0  0  0  0  0  0  0  0  0  0  0  0
   12.7325   94.9730   61.3488 C   0  0  0  0  0  0  0  0  0  0  0  0
   11.4685   95.0627   61.8631 C   0  0  0  0  0  0  0  0  0  0  0  0
   11.0981   94.3756   63.0222 C   0  0  0  0  0  0  0  0  0  0  0  0
   12.0180   93.5841   63.6745 C   0  0  0  0  0  0  0  0  0  0  0  0
   13.3077   93.4808   63.1661 C   0  0  0  0  0  0  0  0  0  0  0  0
   14.4850   92.4668   64.0018 Cl  0  0  0  0  0  0  0  0  0  0  0  0
   13.6289   94.1735   62.0240 C   0  0  0  0  0  0  0  0  0  0  0  0
   12.2277   99.0356   58.4525 C   0  0  0  0  0  0  0  0  0  0  0  0
  1  2  1  0
  2  3  1  0
  3  4  2  0
  4  5  1  0
  5  6  2  0
  6  7  1  0
  6  8  1  0
  8  9  2  0
  9 10  1  0
 10 11  2  0
 11 12  1  0
 12 13  1  0
 13 14  2  0
 13 15  1  0
 15 16  1  0
 16 17  2  0
 17 18  1  0
 18 19  2  0
 19 20  1  0
 20 21  1  0
 20 22  2  0
 12 23  2  0
 23  3  1  0
 23  8  1  0
 22 16  1  0
M  END
$$$$
