
     RDKit          3D

 25 29  0  0  0  0  0  0  0  0999 V2000
   -8.9675   64.6556   31.4738 C   0  0  0  0  0  0  0  0  0  0  0  0
   -9.7903   63.4281   31.5815 C   0  0  0  0  0  0  0  0  0  0  0  0
  -10.9104   63.5299   32.1532 O   0  0  0  0  0  0  0  0  0  0  0  0
   -9.3380   62.1739   31.0595 N   0  0  0  0  0  0  0  0  0  0  0  0
  -10.3123   61.1468   30.8689 C   0  0  0  0  0  0  0  0  0  0  0  0
   -9.8256   59.7631   30.7943 C   0  0  0  0  0  0  0  0  0  0  0  0
   -8.3903   59.5759   30.8076 N   0  0  0  0  0  0  0  0  0  0  0  0
   -7.7094   58.4255   30.8326 C   0  0  0  0  0  0  0  0  0  0  0  0
   -8.1237   57.0120   30.8308 C   0  0  0  0  0  0  0  0  0  0  0  0
   -7.2236   56.1643   31.7569 C   0  0  0  0  0  0  0  0  0  0  0  0
   -7.4012   55.9082   30.2460 C   0  0  0  0  0  0  0  0  0  0  0  0
   -6.4052   58.7794   30.8444 N   0  0  0  0  0  0  0  0  0  0  0  0
   -6.2619   60.0909   30.8274 C   0  0  0  0  0  0  0  0  0  0  0  0
   -4.9652   60.7605   30.8396 C   0  0  0  0  0  0  0  0  0  0  0  0
   -4.8431   62.0927   31.1551 C   0  0  0  0  0  0  0  0  0  0  0  0
   -3.6401   62.7563   31.1851 C   0  0  0  0  0  0  0  0  0  0  0  0
   -2.4736   62.0442   30.8792 C   0  0  0  0  0  0  0  0  0  0  0  0
   -2.5677   60.7082   30.5595 C   0  0  0  0  0  0  0  0  0  0  0  0
   -1.4065   60.0175   30.2581 C   0  0  0  0  0  0  0  0  0  0  0  0
   -1.4329   58.6835   29.9295 C   0  0  0  0  0  0  0  0  0  0  0  0
   -2.6538   58.0437   29.9067 C   0  0  0  0  0  0  0  0  0  0  0  0
   -3.8127   58.7420   30.2096 C   0  0  0  0  0  0  0  0  0  0  0  0
   -3.8050   60.0788   30.5417 C   0  0  0  0  0  0  0  0  0  0  0  0
   -7.5343   60.6216   30.8032 C   0  0  0  0  0  0  0  0  0  0  0  0
   -7.9391   62.0401   30.7698 C   0  0  0  0  0  0  0  0  0  0  0  0
  1  2  1  0
  2  3  2  0
  2  4  1  0
  4  5  1  0
  5  6  1  0
  6  7  1  0
  7  8  1  0
  8  9  1  0
  9 10  1  0
 10 11  1  0
  8 12  2  0
 12 13  1  0
 13 14  1  0
 14 15  2  0
 15 16  1  0
 16 17  2  0
 17 18  1  0
 18 19  2  0
 19 20  1  0
 20 21  2  0
 21 22  1  0
 22 23  2  0
 13 24  2  0
 24 25  1  0
 25  4  1  0
 24  7  1  0
 11  9  1  0
 23 14  1  0
 23 18  1  0
M  END
$$$$
