
     RDKit          3D

 30 34  0  0  0  0  0  0  0  0999 V2000
   17.5987   61.2988   13.6537 C   0  0  0  0  0  0  0  0  0  0  0  0
   16.5208   60.3158   13.4978 N   0  0  0  0  0  0  0  0  0  0  0  0
   16.4539   59.1371   14.1308 C   0  0  0  0  0  0  0  0  0  0  0  0
   15.2841   58.4847   13.7197 C   0  0  0  0  0  0  0  0  0  0  0  0
   14.8615   57.1848   14.2147 C   0  0  0  0  0  0  0  0  0  0  0  0
   14.0023   57.1306   15.3038 C   0  0  0  0  0  0  0  0  0  0  0  0
   13.5698   55.9417   15.8367 C   0  0  0  0  0  0  0  0  0  0  0  0
   13.9853   54.7689   15.2942 C   0  0  0  0  0  0  0  0  0  0  0  0
   14.8547   54.7763   14.1902 C   0  0  0  0  0  0  0  0  0  0  0  0
   15.2733   55.9875   13.6739 C   0  0  0  0  0  0  0  0  0  0  0  0
   16.1397   55.6439   12.5445 C   0  0  0  0  0  0  0  0  0  0  0  0
   16.8328   56.4528   11.6393 C   0  0  0  0  0  0  0  0  0  0  0  0
   17.5905   55.8924   10.6324 C   0  0  0  0  0  0  0  0  0  0  0  0
   17.6943   54.5288   10.4770 C   0  0  0  0  0  0  0  0  0  0  0  0
   17.0188   53.7251   11.3574 C   0  0  0  0  0  0  0  0  0  0  0  0
   16.2425   54.2857   12.3899 C   0  0  0  0  0  0  0  0  0  0  0  0
   15.4344   53.6529   13.4483 C   0  0  0  0  0  0  0  0  0  0  0  0
   14.4544   52.8641   12.8290 O   0  0  0  0  0  0  0  0  0  0  0  0
   16.2804   52.8406   14.4076 C   0  0  0  0  0  0  0  0  0  0  0  0
   15.4400   52.3722   15.3978 F   0  0  0  0  0  0  0  0  0  0  0  0
   17.1635   53.7219   15.0046 F   0  0  0  0  0  0  0  0  0  0  0  0
   16.8945   51.7752   13.8212 F   0  0  0  0  0  0  0  0  0  0  0  0
   14.6825   59.3274   12.8320 C   0  0  0  0  0  0  0  0  0  0  0  0
   13.4139   59.0457   12.1600 C   0  0  0  0  0  0  0  0  0  0  0  0
   12.6397   60.1256   11.7965 C   0  0  0  0  0  0  0  0  0  0  0  0
   11.4297   59.9419   11.1651 C   0  0  0  0  0  0  0  0  0  0  0  0
   10.9898   58.7133   10.8964 N   0  0  0  0  0  0  0  0  0  0  0  0
   11.7260   57.6575   11.2406 C   0  0  0  0  0  0  0  0  0  0  0  0
   12.9482   57.7908   11.8765 C   0  0  0  0  0  0  0  0  0  0  0  0
   15.4618   60.4149   12.7298 N   0  0  0  0  0  0  0  0  0  0  0  0
  1  2  1  0
  2  3  1  0
  3  4  2  0
  4  5  1  0
  5  6  2  0
  6  7  1  0
  7  8  2  0
  8  9  1  0
  9 10  2  0
 10 11  1  0
 11 12  2  0
 12 13  1  0
 13 14  2  0
 14 15  1  0
 15 16  2  0
 16 17  1  0
 17 18  1  0
 17 19  1  0
 19 20  1  0
 19 21  1  0
 19 22  1  0
  4 23  1  0
 23 24  1  0
 24 25  2  0
 25 26  1  0
 26 27  2  0
 27 28  1  0
 28 29  2  0
 23 30  2  0
 30  2  1  0
 10  5  1  0
 16 11  1  0
 29 24  1  0
 17  9  1  0
M  END
$$$$
