
     RDKit          3D

 35 37  0  0  0  0  0  0  0  0999 V2000
   16.5968   98.4550   48.6826 C   0  0  0  0  0  0  0  0  0  0  0  0
   16.6639   99.4438   49.8200 C   0  0  0  0  0  0  0  0  0  0  0  0
   15.5009  100.1699   50.0140 O   0  0  0  0  0  0  0  0  0  0  0  0
   14.9068  100.2946   51.2493 C   0  0  0  0  0  0  0  0  0  0  0  0
   13.7590  101.0192   51.4738 C   0  0  0  0  0  0  0  0  0  0  0  0
   13.2082  101.0997   52.7582 C   0  0  0  0  0  0  0  0  0  0  0  0
   13.8010  100.4592   53.8178 C   0  0  0  0  0  0  0  0  0  0  0  0
   13.2123  100.5573   55.1147 N   0  0  0  0  0  0  0  0  0  0  0  0
   13.1940   99.4824   56.0236 C   0  0  0  0  0  0  0  0  0  0  0  0
   13.9228   98.4762   55.7133 O   0  0  0  0  0  0  0  0  0  0  0  0
   12.4387   99.4105   57.2587 C   0  0  0  0  0  0  0  0  0  0  0  0
   11.4938  100.3725   57.5122 C   0  0  0  0  0  0  0  0  0  0  0  0
   10.7374  100.3604   58.6846 C   0  0  0  0  0  0  0  0  0  0  0  0
   10.9472   99.3605   59.6024 C   0  0  0  0  0  0  0  0  0  0  0  0
   11.9084   98.3895   59.3348 C   0  0  0  0  0  0  0  0  0  0  0  0
   12.1159   97.3378   60.3362 C   0  0  0  0  0  0  0  0  0  0  0  0
   12.5083   96.2008   59.9521 O   0  0  0  0  0  0  0  0  0  0  0  0
   11.9035   97.5163   61.7139 N   0  0  0  0  0  0  0  0  0  0  0  0
   11.9929   96.3582   62.5721 C   0  0  0  0  0  0  0  0  0  0  0  0
   10.9627   95.9655   63.3805 C   0  0  0  0  0  0  0  0  0  0  0  0
   11.0817   94.8693   64.1690 C   0  0  0  0  0  0  0  0  0  0  0  0
   12.2711   94.1261   64.1598 C   0  0  0  0  0  0  0  0  0  0  0  0
   12.2985   92.9020   64.9514 C   0  0  0  0  0  0  0  0  0  0  0  0
   11.6638   91.7738   64.3509 N   0  0  0  0  0  0  0  0  0  0  0  0
   10.4598   92.2436   63.5886 C   0  0  0  0  0  0  0  0  0  0  0  0
   12.4205   91.0716   63.3398 C   0  0  0  0  0  0  0  0  0  0  0  0
   13.3442   94.4813   63.3644 C   0  0  0  0  0  0  0  0  0  0  0  0
   14.6566   93.8510   63.3426 C   0  0  0  0  0  0  0  0  0  0  0  0
   15.0224   93.1158   62.2740 F   0  0  0  0  0  0  0  0  0  0  0  0
   15.6360   94.8542   63.4678 F   0  0  0  0  0  0  0  0  0  0  0  0
   14.8578   93.0975   64.5354 F   0  0  0  0  0  0  0  0  0  0  0  0
   13.1479   95.6188   62.5794 C   0  0  0  0  0  0  0  0  0  0  0  0
   12.6507   98.4029   58.1822 C   0  0  0  0  0  0  0  0  0  0  0  0
   14.9448   99.7484   53.5497 C   0  0  0  0  0  0  0  0  0  0  0  0
   15.5356   99.6281   52.3196 C   0  0  0  0  0  0  0  0  0  0  0  0
  1  2  1  0
  2  3  1  0
  3  4  1  0
  4  5  2  0
  5  6  1  0
  6  7  2  0
  7  8  1  0
  8  9  1  0
  9 10  2  0
  9 11  1  0
 11 12  2  0
 12 13  1  0
 13 14  2  0
 14 15  1  0
 15 16  1  0
 16 17  2  0
 16 18  1  0
 18 19  1  0
 19 20  2  0
 20 21  1  0
 21 22  2  0
 22 23  1  0
 23 24  1  0
 24 25  1  0
 24 26  1  0
 22 27  1  0
 27 28  1  0
 28 29  1  0
 28 30  1  0
 28 31  1  0
 27 32  2  0
 15 33  2  0
  7 34  1  0
 34 35  2  0
 35  4  1  0
 33 11  1  0
 32 19  1  0
M  END
$$$$
