
     RDKit          3D

 21 22  0  0  0  0  0  0  0  0999 V2000
   28.9423   82.6748   43.1386 C   0  0  0  0  0  0  0  0  0  0  0  0
   29.8300   81.4779   43.2417 C   0  0  0  0  0  0  0  0  0  0  0  0
   31.0057   81.7037   44.0682 N   0  0  0  0  0  0  0  0  0  0  0  0
   30.9784   81.6619   45.5152 C   0  0  0  0  0  0  0  0  0  0  0  0
   32.2565   82.3424   45.8883 C   0  0  0  0  0  0  0  0  0  0  0  0
   32.7072   82.0382   47.2578 C   0  0  0  0  0  0  0  0  0  0  0  0
   33.6885   81.2475   47.4305 O   0  0  0  0  0  0  0  0  0  0  0  0
   32.1208   82.5694   48.4259 N   0  0  0  0  0  0  0  0  0  0  0  0
   32.6242   82.3036   49.7224 C   0  0  0  0  0  0  0  0  0  0  0  0
   33.9747   82.3587   49.9973 C   0  0  0  0  0  0  0  0  0  0  0  0
   34.4800   82.0955   51.2560 C   0  0  0  0  0  0  0  0  0  0  0  0
   33.6383   81.7660   52.2869 C   0  0  0  0  0  0  0  0  0  0  0  0
   32.2789   81.7022   52.0444 C   0  0  0  0  0  0  0  0  0  0  0  0
   31.7936   81.9671   50.7852 C   0  0  0  0  0  0  0  0  0  0  0  0
   30.0356   81.8514   50.5542 S   0  0  0  0  0  0  0  0  0  0  0  0
   29.1132   81.9939   52.0852 C   0  0  0  0  0  0  0  0  0  0  0  0
   27.7388   82.1183   51.8828 F   0  0  0  0  0  0  0  0  0  0  0  0
   29.5916   82.9558   52.9217 F   0  0  0  0  0  0  0  0  0  0  0  0
   33.2014   81.8650   44.8108 C   0  0  0  0  0  0  0  0  0  0  0  0
   32.3230   81.9908   43.6197 C   0  0  0  0  0  0  0  0  0  0  0  0
   32.6588   82.2883   42.4533 O   0  0  0  0  0  0  0  0  0  0  0  0
  1  2  1  0
  2  3  1  0
  3  4  1  0
  4  5  1  0
  5  6  1  0
  6  7  2  0
  6  8  1  0
  8  9  1  0
  9 10  2  0
 10 11  1  0
 11 12  2  0
 12 13  1  0
 13 14  2  0
 14 15  1  0
 15 16  1  0
 16 17  1  0
 16 18  1  0
  5 19  1  0
 19 20  1  0
 20 21  2  0
 20  3  1  0
 14  9  1  0
M  END
$$$$
