
     RDKit          3D

 25 27  0  0  0  0  0  0  0  0999 V2000
   15.6497  101.8270   55.6160 N   0  0  0  0  0  0  0  0  0  0  0  0
   15.4047  101.5098   54.2576 C   0  0  0  0  0  0  0  0  0  0  0  0
   16.1892  101.9589   53.3893 O   0  0  0  0  0  0  0  0  0  0  0  0
   14.2811  100.6864   53.8440 C   0  0  0  0  0  0  0  0  0  0  0  0
   13.9231  100.5141   52.5262 C   0  0  0  0  0  0  0  0  0  0  0  0
   12.8463   99.7205   52.1908 C   0  0  0  0  0  0  0  0  0  0  0  0
   12.0926   99.0747   53.1476 C   0  0  0  0  0  0  0  0  0  0  0  0
   12.4512   99.2480   54.4584 C   0  0  0  0  0  0  0  0  0  0  0  0
   13.5282  100.0398   54.8195 C   0  0  0  0  0  0  0  0  0  0  0  0
   13.8827  100.2099   56.1320 O   0  0  0  0  0  0  0  0  0  0  0  0
   13.4135   99.3466   57.0804 C   0  0  0  0  0  0  0  0  0  0  0  0
   14.2079   98.3711   57.6329 C   0  0  0  0  0  0  0  0  0  0  0  0
   13.7112   97.5126   58.5880 C   0  0  0  0  0  0  0  0  0  0  0  0
   12.3952   97.6188   59.0097 C   0  0  0  0  0  0  0  0  0  0  0  0
   11.8521   96.7634   59.9802 O   0  0  0  0  0  0  0  0  0  0  0  0
   12.7018   95.7803   60.5126 C   0  0  0  0  0  0  0  0  0  0  0  0
   12.0958   95.1588   61.7140 C   0  0  0  0  0  0  0  0  0  0  0  0
   10.8259   95.2646   61.8366 O   0  0  0  0  0  0  0  0  0  0  0  0
   12.8405   94.4728   62.7021 N   0  0  0  0  0  0  0  0  0  0  0  0
   14.2782   94.3349   62.6883 C   0  0  0  0  0  0  0  0  0  0  0  0
   14.4688   92.9174   63.1778 C   0  0  0  0  0  0  0  0  0  0  0  0
   13.5451   92.9581   64.4097 C   0  0  0  0  0  0  0  0  0  0  0  0
   12.3659   93.7920   63.8780 C   0  0  0  0  0  0  0  0  0  0  0  0
   11.6062   98.6025   58.4478 C   0  0  0  0  0  0  0  0  0  0  0  0
   12.1054   99.4540   57.4980 C   0  0  0  0  0  0  0  0  0  0  0  0
  1  2  1  0
  2  3  2  0
  2  4  1  0
  4  5  2  0
  5  6  1  0
  6  7  2  0
  7  8  1  0
  8  9  2  0
  9 10  1  0
 10 11  1  0
 11 12  2  0
 12 13  1  0
 13 14  2  0
 14 15  1  0
 15 16  1  0
 16 17  1  0
 17 18  2  0
 17 19  1  0
 19 20  1  0
 20 21  1  0
 21 22  1  0
 22 23  1  0
 14 24  1  0
 24 25  2  0
  9  4  1  0
 25 11  1  0
 23 19  1  0
M  END
$$$$
