
     RDKit          3D

 23 24  0  0  0  0  0  0  0  0999 V2000
   12.2225   90.8647   66.3604 C   0  0  0  0  0  0  0  0  0  0  0  0
   11.4719   91.2449   65.1273 C   0  0  0  0  0  0  0  0  0  0  0  0
   11.2344   90.1054   64.1832 C   0  0  0  0  0  0  0  0  0  0  0  0
   12.1786   92.3257   64.3566 C   0  0  0  0  0  0  0  0  0  0  0  0
   13.3676   92.2368   63.9986 O   0  0  0  0  0  0  0  0  0  0  0  0
   11.4524   93.4970   64.0253 N   0  0  0  0  0  0  0  0  0  0  0  0
   12.1343   94.5777   63.3741 C   0  0  0  0  0  0  0  0  0  0  0  0
   12.0102   95.6400   62.9321 N   0  0  0  0  0  0  0  0  0  0  0  0
   12.8494   96.4558   62.3596 C   0  0  0  0  0  0  0  0  0  0  0  0
   12.5783   97.8406   61.8060 C   0  0  0  0  0  0  0  0  0  0  0  0
   12.1058   97.7298   60.3770 C   0  0  0  0  0  0  0  0  0  0  0  0
   11.3512   96.7890   60.0569 O   0  0  0  0  0  0  0  0  0  0  0  0
   12.5705   98.7264   59.5018 N   0  0  0  0  0  0  0  0  0  0  0  0
   11.9500   99.0979   58.2901 C   0  0  0  0  0  0  0  0  0  0  0  0
   11.7092   98.2828   57.2398 C   0  0  0  0  0  0  0  0  0  0  0  0
   12.1314   96.9758   57.1927 F   0  0  0  0  0  0  0  0  0  0  0  0
   11.0408   98.7494   56.1093 C   0  0  0  0  0  0  0  0  0  0  0  0
   10.6044  100.0267   56.0036 C   0  0  0  0  0  0  0  0  0  0  0  0
   10.8469  100.8656   57.0692 C   0  0  0  0  0  0  0  0  0  0  0  0
   11.4964  100.4302   58.1814 C   0  0  0  0  0  0  0  0  0  0  0  0
   11.7120  101.3041   59.2126 F   0  0  0  0  0  0  0  0  0  0  0  0
   14.1569   95.9541   62.2570 C   0  0  0  0  0  0  0  0  0  0  0  0
   13.9813   94.2935   63.0401 S   0  0  0  0  0  0  0  0  0  0  0  0
  1  2  1  0
  2  3  1  0
  2  4  1  0
  4  5  2  0
  4  6  1  0
  6  7  1  0
  7  8  2  0
  8  9  1  0
  9 10  1  0
 10 11  1  0
 11 12  2  0
 11 13  1  0
 13 14  1  0
 14 15  2  0
 15 16  1  0
 15 17  1  0
 17 18  2  0
 18 19  1  0
 19 20  2  0
 20 21  1  0
  9 22  2  0
 22 23  1  0
 23  7  1  0
 20 14  1  0
M  END
$$$$
