
     RDKit          3D

 27 32  0  0  0  0  0  0  0  0999 V2000
   10.8650   97.1149   60.6578 C   0  0  0  0  0  0  0  0  0  0  0  0
   11.9435   97.7065   59.7910 C   0  0  0  0  0  0  0  0  0  0  0  0
   11.9160   98.1789   58.5963 N   0  0  0  0  0  0  0  0  0  0  0  0
   12.9299   98.6584   57.9793 C   0  0  0  0  0  0  0  0  0  0  0  0
   14.1577   98.6266   58.7389 C   0  0  0  0  0  0  0  0  0  0  0  0
   13.6234   97.9077   60.2464 S   0  0  0  0  0  0  0  0  0  0  0  0
   15.4536   98.9630   58.1858 C   0  0  0  0  0  0  0  0  0  0  0  0
   15.5436   99.8766   57.0299 C   0  0  0  0  0  0  0  0  0  0  0  0
   14.3093   99.8161   56.3078 C   0  0  0  0  0  0  0  0  0  0  0  0
   13.1211   99.3007   56.6923 C   0  0  0  0  0  0  0  0  0  0  0  0
   11.7838   99.1944   56.0801 C   0  0  0  0  0  0  0  0  0  0  0  0
   10.9298   99.4259   57.1280 C   0  0  0  0  0  0  0  0  0  0  0  0
    9.6246   99.2773   56.8390 N   0  0  0  0  0  0  0  0  0  0  0  0
    9.1579   98.9315   55.6166 C   0  0  0  0  0  0  0  0  0  0  0  0
   10.0116   98.7066   54.5639 C   0  0  0  0  0  0  0  0  0  0  0  0
   11.3433   98.8444   54.8045 C   0  0  0  0  0  0  0  0  0  0  0  0
   12.0291   98.6929   53.5168 C   0  0  0  0  0  0  0  0  0  0  0  0
   11.4968   97.8635   52.8009 O   0  0  0  0  0  0  0  0  0  0  0  0
   13.1819   99.3716   53.0235 N   0  0  0  0  0  0  0  0  0  0  0  0
   13.2583   99.4837   51.6824 C   0  0  0  0  0  0  0  0  0  0  0  0
   14.3340  100.2192   51.4254 N   0  0  0  0  0  0  0  0  0  0  0  0
   14.9407  100.5730   52.5922 C   0  0  0  0  0  0  0  0  0  0  0  0
   16.0645  101.3400   52.8048 C   0  0  0  0  0  0  0  0  0  0  0  0
   16.5054  101.5951   54.0754 C   0  0  0  0  0  0  0  0  0  0  0  0
   15.7781  101.0493   55.1331 C   0  0  0  0  0  0  0  0  0  0  0  0
   14.6678  100.2879   54.9255 C   0  0  0  0  0  0  0  0  0  0  0  0
   14.2078  100.0289   53.6284 C   0  0  0  0  0  0  0  0  0  0  0  0
  1  2  1  0
  2  3  2  0
  3  4  1  0
  4  5  2  0
  5  6  1  0
  5  7  1  0
  7  8  1  0
  8  9  1  0
  9 10  2  0
 10 11  1  0
 11 12  2  0
 12 13  1  0
 13 14  2  0
 14 15  1  0
 15 16  2  0
 16 17  1  0
 17 18  2  0
 17 19  1  0
 19 20  1  0
 20 21  2  0
 21 22  1  0
 22 23  2  0
 23 24  1  0
 24 25  2  0
 25 26  1  0
 26 27  2  0
  6  2  1  0
 26  9  1  0
 10  4  1  0
 16 11  1  0
 27 19  1  0
 27 22  1  0
M  END
$$$$
