
     RDKit          3D

 21 23  0  0  0  0  0  0  0  0999 V2000
   14.6163   91.3992   62.2847 C   0  0  0  0  0  0  0  0  0  0  0  0
   13.8887   92.1216   63.3149 N   0  0  0  0  0  4  0  0  0  0  0  0
   14.5632   92.0125   64.6056 C   0  0  0  0  0  0  0  0  0  0  0  0
   13.6885   92.6797   65.6383 C   0  0  0  0  0  0  0  0  0  0  0  0
   12.5585   93.4548   64.9729 C   0  0  0  0  0  0  0  0  0  0  0  0
   11.8694   94.1541   65.9317 F   0  0  0  0  0  0  0  0  0  0  0  0
   11.6626   92.5289   64.1750 C   0  0  0  0  0  0  0  0  0  0  0  0
   12.5797   91.5648   63.4511 C   0  0  0  0  0  0  0  0  0  0  0  0
   13.1948   94.3953   63.9501 C   0  0  2  0  0  0  0  0  0  0  0  0
   12.0946   95.0389   63.2943 O   0  0  0  0  0  0  0  0  0  0  0  0
   12.2341   95.7573   62.1363 C   0  0  0  0  0  0  0  0  0  0  0  0
   13.3909   95.9590   61.6959 O   0  0  0  0  0  0  0  0  0  0  0  0
   11.0848   96.2479   61.4740 N   0  0  0  0  0  0  0  0  0  0  0  0
   11.1528   97.4004   60.6626 C   0  0  0  0  0  0  0  0  0  0  0  0
   12.3711   97.7950   60.1517 C   0  0  0  0  0  0  0  0  0  0  0  0
   12.4861   98.9237   59.3477 C   0  0  0  0  0  0  0  0  0  0  0  0
   11.3684   99.6676   59.0504 C   0  0  0  0  0  0  0  0  0  0  0  0
   11.4820  101.2262   57.9488 Br  0  0  0  0  0  0  0  0  0  0  0  0
   10.1519   99.2659   59.5659 C   0  0  0  0  0  0  0  0  0  0  0  0
   10.0371   98.1407   60.3675 C   0  0  0  0  0  0  0  0  0  0  0  0
   13.9015   93.5158   62.9455 C   0  0  0  0  0  0  0  0  0  0  0  0
  1  2  1  0
  2  3  1  0
  3  4  1  0
  4  5  1  0
  5  6  1  0
  5  7  1  0
  7  8  1  0
  5  9  1  0
  9 10  1  6
 10 11  1  0
 11 12  2  0
 11 13  1  0
 13 14  1  0
 14 15  2  0
 15 16  1  0
 16 17  2  0
 17 18  1  0
 17 19  1  0
 19 20  2  0
  9 21  1  0
  8  2  1  0
 20 14  1  0
 21  2  1  0
M  CHG  1   2   1
M  END
$$$$
