
     RDKit          3D

 21 23  0  0  0  0  0  0  0  0999 V2000
   15.1881  101.4480   57.3386 C   0  0  0  0  0  0  0  0  0  0  0  0
   14.5679  100.7813   56.2858 O   0  0  0  0  0  0  0  0  0  0  0  0
   13.5702   99.8412   56.5033 C   0  0  0  0  0  0  0  0  0  0  0  0
   12.9125   99.3406   55.3994 C   0  0  0  0  0  0  0  0  0  0  0  0
   11.9225   98.4092   55.6003 C   0  0  0  0  0  0  0  0  0  0  0  0
   11.6115   98.0007   56.8763 C   0  0  0  0  0  0  0  0  0  0  0  0
   12.2473   98.4791   58.0011 C   0  0  0  0  0  0  0  0  0  0  0  0
   11.8574   97.9944   59.3142 C   0  0  0  0  0  0  0  0  0  0  0  0
   11.6601   98.6936   60.4415 N   0  0  0  0  0  0  0  0  0  0  0  0
   11.3114   97.9054   61.4422 N   0  0  0  0  0  0  0  0  0  0  0  0
   11.2819   96.6580   60.9485 C   0  0  0  0  0  0  0  0  0  0  0  0
   10.9302   95.4594   61.7599 C   0  0  0  0  0  0  0  0  0  0  0  0
   12.2004   94.7834   62.1234 C   0  0  0  0  0  0  0  0  0  0  0  0
   12.2210   93.5658   62.7538 C   0  0  0  0  0  0  0  0  0  0  0  0
   13.3921   92.9426   63.0889 C   0  0  0  0  0  0  0  0  0  0  0  0
   14.5981   93.5421   62.7917 C   0  0  0  0  0  0  0  0  0  0  0  0
   16.1206   92.7684   63.2086 Cl  0  0  0  0  0  0  0  0  0  0  0  0
   14.5810   94.7768   62.1526 C   0  0  0  0  0  0  0  0  0  0  0  0
   13.3965   95.3962   61.8192 C   0  0  0  0  0  0  0  0  0  0  0  0
   11.6160   96.7177   59.6489 N   0  0  0  0  0  0  0  0  0  0  0  0
   13.2367   99.4119   57.7803 C   0  0  0  0  0  0  0  0  0  0  0  0
  1  2  1  0
  2  3  1  0
  3  4  2  0
  4  5  1  0
  5  6  2  0
  6  7  1  0
  7  8  1  0
  8  9  2  0
  9 10  1  0
 10 11  1  0
 11 12  1  0
 12 13  1  0
 13 14  2  0
 14 15  1  0
 15 16  2  0
 16 17  1  0
 16 18  1  0
 18 19  2  0
 11 20  2  0
  7 21  2  0
 21  3  1  0
 20  8  1  0
 19 13  1  0
M  END
$$$$
