
     RDKit          3D

 16 15  0  0  0  0  0  0  0  0999 V2000
   14.0794   46.2128   21.5795 C   0  0  0  0  0  0  0  0  0  0  0  0
   15.0032   47.2553   21.0376 C   0  0  0  0  0  0  0  0  0  0  0  0
   15.2164   47.2925   19.5755 C   0  0  0  0  0  0  0  0  0  0  0  0
   16.2915   48.2051   19.1037 C   0  0  0  0  0  0  0  0  0  0  0  0
   16.4542   48.2756   17.6300 C   0  0  0  0  0  0  0  0  0  0  0  0
   17.0095   49.6634   17.2706 C   0  0  0  0  0  0  0  0  0  0  0  0
   15.9526   50.5886   16.8066 C   0  0  0  0  0  0  0  0  0  0  0  0
   16.5023   51.6224   15.8108 C   0  0  0  0  0  0  0  0  0  0  0  0
   15.4576   51.9301   14.7889 C   0  0  0  0  0  0  0  0  0  0  0  0
   15.9450   52.9622   13.7767 C   0  0  0  0  0  0  0  0  0  0  0  0
   15.2246   54.2719   14.1062 C   0  0  0  0  0  0  0  0  0  0  0  0
   15.9345   55.4582   13.5685 C   0  0  0  0  0  0  0  0  0  0  0  0
   15.7203   55.7744   12.2049 N   0  0  0  0  0  4  0  0  0  0  0  0
   16.7631   55.4299   11.2970 C   0  0  0  0  0  0  0  0  0  0  0  0
   14.4856   55.1269   11.7271 C   0  0  0  0  0  0  0  0  0  0  0  0
   15.4745   57.2016   12.0881 C   0  0  0  0  0  0  0  0  0  0  0  0
  1  2  1  0
  2  3  1  0
  3  4  1  0
  4  5  1  0
  5  6  1  0
  6  7  1  0
  7  8  1  0
  8  9  1  0
  9 10  1  0
 10 11  1  0
 11 12  1  0
 12 13  1  0
 13 14  1  0
 13 15  1  0
 13 16  1  0
M  CHG  1  13   1
M  END
$$$$
