
     RDKit          3D

 32 35  0  0  0  0  0  0  0  0999 V2000
   16.6781  101.5557   51.9840 C   0  0  0  0  0  0  0  0  0  0  0  0
   16.4366  101.4216   53.3491 O   0  0  0  0  0  0  0  0  0  0  0  0
   15.2548  100.9532   53.9067 C   0  0  0  0  0  0  0  0  0  0  0  0
   14.8952  101.1694   55.2205 C   0  0  0  0  0  0  0  0  0  0  0  0
   13.6980  100.6696   55.7045 C   0  0  0  0  0  0  0  0  0  0  0  0
   13.3738  100.8992   56.9994 F   0  0  0  0  0  0  0  0  0  0  0  0
   12.8196   99.9454   54.9187 C   0  0  0  0  0  0  0  0  0  0  0  0
   11.5617   99.4530   55.5291 C   0  0  0  0  0  0  0  0  0  0  0  0
   11.8057   98.7271   56.7478 N   0  0  0  0  0  0  0  0  0  0  0  0
   12.5037   97.5809   56.7837 C   0  0  0  0  0  0  0  0  0  0  0  0
   12.9744   97.1062   55.7034 O   0  0  0  0  0  0  0  0  0  0  0  0
   12.7478   96.8823   57.8992 N   0  0  0  0  0  0  0  0  0  0  0  0
   12.2556   97.3648   59.0801 C   0  0  0  0  0  0  0  0  0  0  0  0
   12.4847   96.6727   60.2590 C   0  0  0  0  0  0  0  0  0  0  0  0
   11.9990   97.1420   61.4469 C   0  0  0  0  0  0  0  0  0  0  0  0
   12.2007   96.4684   62.7188 C   0  0  0  0  0  0  0  0  0  0  0  0
   12.0049   96.9347   63.9613 N   0  0  0  0  0  0  0  0  0  0  0  0
   12.3186   95.9715   64.8092 O   0  0  0  0  0  0  0  0  0  0  0  0
   12.7077   94.9060   64.1614 C   0  0  0  0  0  0  0  0  0  0  0  0
   13.1526   93.5913   64.6919 C   0  0  0  0  0  0  0  0  0  0  0  0
   14.5966   93.6501   64.8039 N   0  0  0  0  0  0  0  0  0  0  0  0
   15.0806   94.8648   65.3796 C   0  0  0  0  0  0  0  0  0  0  0  0
   15.2085   93.3280   63.5273 C   0  0  0  0  0  0  0  0  0  0  0  0
   12.6367   95.2089   62.8530 N   0  0  0  0  0  0  0  0  0  0  0  0
   11.2803   98.3223   61.4095 C   0  0  0  0  0  0  0  0  0  0  0  0
   11.0421   99.0190   60.2691 C   0  0  0  0  0  0  0  0  0  0  0  0
   11.5365   98.5435   59.0512 C   0  0  0  0  0  0  0  0  0  0  0  0
   11.3042   99.2369   57.8843 C   0  0  0  0  0  0  0  0  0  0  0  0
   10.6427  100.2972   57.9465 O   0  0  0  0  0  0  0  0  0  0  0  0
   13.1767   99.7277   53.6047 C   0  0  0  0  0  0  0  0  0  0  0  0
   12.3458   99.0280   52.8146 F   0  0  0  0  0  0  0  0  0  0  0  0
   14.3856  100.2325   53.1165 C   0  0  0  0  0  0  0  0  0  0  0  0
  1  2  1  0
  2  3  1  0
  3  4  2  0
  4  5  1  0
  5  6  1  0
  5  7  2  0
  7  8  1  0
  8  9  1  0
  9 10  1  0
 10 11  2  0
 10 12  1  0
 12 13  1  0
 13 14  2  0
 14 15  1  0
 15 16  1  0
 16 17  2  0
 17 18  1  0
 18 19  1  0
 19 20  1  0
 20 21  1  0
 21 22  1  0
 21 23  1  0
 19 24  2  0
 15 25  2  0
 25 26  1  0
 26 27  2  0
 27 28  1  0
 28 29  2  0
  7 30  1  0
 30 31  1  0
 30 32  2  0
 32  3  1  0
 28  9  1  0
 27 13  1  0
 24 16  1  0
M  END
$$$$
