
     RDKit          3D

 36 39  0  0  0  0  0  0  0  0999 V2000
   18.9689  103.8005   51.7855 C   0  0  0  0  0  0  0  0  0  0  0  0
   17.8698  102.9952   52.4632 C   0  0  0  0  0  0  0  0  0  0  0  0
   17.0327  102.3539   51.3704 C   0  0  0  0  0  0  0  0  0  0  0  0
   15.9423  101.5779   51.9336 N   0  0  0  0  0  0  0  0  0  0  0  0
   15.6929  101.6785   53.2521 C   0  0  0  0  0  0  0  0  0  0  0  0
   16.3797  102.4260   54.0033 O   0  0  0  0  0  0  0  0  0  0  0  0
   14.6399  100.9218   53.7645 C   0  0  0  0  0  0  0  0  0  0  0  0
   14.1856  100.8341   55.0062 N   0  0  0  0  0  0  0  0  0  0  0  0
   13.1412   99.9609   54.9902 C   0  0  0  0  0  0  0  0  0  0  0  0
   12.3642   99.5889   56.1635 C   0  0  0  0  0  0  0  0  0  0  0  0
   12.6813   99.9538   57.4837 C   0  0  0  0  0  0  0  0  0  0  0  0
   11.7538   99.4464   58.3475 C   0  0  0  0  0  0  0  0  0  0  0  0
   11.6987   99.5751   59.7386 O   0  0  0  0  0  0  0  0  0  0  0  0
   11.2249   98.5644   60.5767 C   0  0  0  0  0  0  0  0  0  0  0  0
   12.3192   97.6487   61.0113 C   0  0  0  0  0  0  0  0  0  0  0  0
   13.4446   98.1440   61.2069 O   0  0  0  0  0  0  0  0  0  0  0  0
   12.1283   96.2700   61.2047 N   0  0  0  0  0  0  0  0  0  0  0  0
   13.0007   95.3238   61.7291 C   0  0  0  0  0  0  0  0  0  0  0  0
   12.6314   94.0648   62.1042 C   0  0  0  0  0  0  0  0  0  0  0  0
   13.5647   93.1502   62.6301 C   0  0  0  0  0  0  0  0  0  0  0  0
   14.8873   93.4871   62.7880 C   0  0  0  0  0  0  0  0  0  0  0  0
   16.0973   92.3621   63.4481 S   0  0  0  0  0  0  0  0  0  0  0  0
   16.5905   92.8243   65.1348 C   0  0  0  0  0  0  0  0  0  0  0  0
   15.2464   94.7587   62.4063 C   0  0  0  0  0  0  0  0  0  0  0  0
   14.3564   95.6702   61.8905 C   0  0  0  0  0  0  0  0  0  0  0  0
   10.8835   98.7828   57.5760 N   0  0  0  0  0  0  0  0  0  0  0  0
   11.2536   98.8724   56.2790 N   0  0  0  0  0  0  0  0  0  0  0  0
   10.5088   98.2526   55.1805 C   0  0  0  0  0  0  0  0  0  0  0  0
   12.9859   99.5369   53.7311 N   0  0  0  0  0  0  0  0  0  0  0  0
   13.9170  100.1197   52.9092 C   0  0  0  0  0  0  0  0  0  0  0  0
   14.1755  100.0272   51.5937 N   0  0  0  0  0  0  0  0  0  0  0  0
   13.3651   99.1718   50.7907 C   0  0  0  0  0  0  0  0  0  0  0  0
   13.1604   99.6086   49.3791 C   0  0  0  0  0  0  0  0  0  0  0  0
   12.0447   98.7874   48.7694 C   0  0  0  0  0  0  0  0  0  0  0  0
   15.2022  100.7757   51.1381 C   0  0  0  0  0  0  0  0  0  0  0  0
   15.4974  100.7385   49.9236 O   0  0  0  0  0  0  0  0  0  0  0  0
  1  2  1  0
  2  3  1  0
  3  4  1  0
  4  5  1  0
  5  6  2  0
  5  7  1  0
  7  8  1  0
  8  9  2  0
  9 10  1  0
 10 11  2  0
 11 12  1  0
 12 13  1  0
 13 14  1  0
 14 15  1  0
 15 16  2  0
 15 17  1  0
 17 18  1  0
 18 19  2  0
 19 20  1  0
 20 21  2  0
 21 22  1  0
 22 23  1  0
 21 24  1  0
 24 25  2  0
 12 26  2  0
 26 27  1  0
 27 28  1  0
  9 29  1  0
 29 30  1  0
 30 31  1  0
 31 32  1  0
 32 33  1  0
 33 34  1  0
 31 35  1  0
 35 36  2  0
 35  4  1  0
 30  7  2  0
 27 10  1  0
 25 18  1  0
M  END
$$$$
