
     RDKit          3D

 30 34  0  0  0  0  0  0  0  0999 V2000
   35.3267   82.0478   52.3933 O   0  0  0  0  0  0  0  0  0  0  0  0
   36.3160   81.5669   51.7904 C   0  0  0  0  0  0  0  0  0  0  0  0
   37.0382   80.5075   52.3576 N   0  0  0  0  0  0  0  0  0  0  0  0
   36.7592   79.9352   53.6522 C   0  0  0  0  0  0  0  0  0  0  0  0
   37.7374   78.7816   53.8721 C   0  0  0  0  0  0  0  0  0  0  0  0
   39.1166   79.3269   54.2153 C   0  0  0  0  0  0  0  0  0  0  0  0
   39.5817   78.6696   55.3968 N   0  0  0  0  0  0  0  0  0  0  0  0
   38.7432   78.7858   56.5405 C   0  0  0  0  0  0  0  0  0  0  0  0
   39.4045   79.7750   57.4778 C   0  0  0  0  0  0  0  0  0  0  0  0
   40.8615   79.7459   57.1084 C   0  0  0  0  0  0  0  0  0  0  0  0
   40.9154   79.0779   55.7812 C   0  0  0  0  0  0  0  0  0  0  0  0
   36.7265   82.1127   50.4798 C   0  0  0  0  0  0  0  0  0  0  0  0
   38.0634   82.3450   50.2080 C   0  0  0  0  0  0  0  0  0  0  0  0
   38.5062   82.8493   49.0045 C   0  0  0  0  0  0  0  0  0  0  0  0
   37.5765   83.1362   48.0246 C   0  0  0  0  0  0  0  0  0  0  0  0
   36.2373   82.9135   48.2710 C   0  0  0  0  0  0  0  0  0  0  0  0
   35.8093   82.4046   49.4908 C   0  0  0  0  0  0  0  0  0  0  0  0
   34.4057   82.1853   49.7097 N   0  0  0  0  0  0  0  0  0  0  0  0
   33.7725   82.3029   50.8866 C   0  0  0  0  0  0  0  0  0  0  0  0
   32.4322   82.0244   50.7319 C   0  0  0  0  0  0  0  0  0  0  0  0
   31.3253   82.0195   51.7237 C   0  0  0  0  0  0  0  0  0  0  0  0
   31.3404   83.1928   52.6754 C   0  0  0  0  0  0  0  0  0  0  0  0
   32.0866   82.3188   53.6593 C   0  0  0  0  0  0  0  0  0  0  0  0
   31.5580   81.1183   52.9073 C   0  0  0  0  0  0  0  0  0  0  0  0
   32.2838   81.7300   49.3924 C   0  0  0  0  0  0  0  0  0  0  0  0
   31.2259   81.3806   48.6225 N   0  0  0  0  0  0  0  0  0  0  0  0
   31.3106   81.1354   47.3191 C   0  0  0  0  0  0  0  0  0  0  0  0
   32.5428   81.2388   46.6995 C   0  0  0  0  0  0  0  0  0  0  0  0
   33.6534   81.5850   47.4056 C   0  0  0  0  0  0  0  0  0  0  0  0
   33.5080   81.8332   48.7781 C   0  0  0  0  0  0  0  0  0  0  0  0
  1  2  2  0
  2  3  1  0
  3  4  1  0
  4  5  1  0
  5  6  1  0
  6  7  1  0
  7  8  1  0
  8  9  1  0
  9 10  1  0
 10 11  1  0
  2 12  1  0
 12 13  2  0
 13 14  1  0
 14 15  2  0
 15 16  1  0
 16 17  2  0
 17 18  1  0
 18 19  1  0
 19 20  2  0
 20 21  1  0
 21 22  1  0
 22 23  1  0
 23 24  1  0
 20 25  1  0
 25 26  2  0
 26 27  1  0
 27 28  2  0
 28 29  1  0
 29 30  2  0
 11  7  1  0
 17 12  1  0
 30 18  1  0
 24 21  1  0
 30 25  1  0
M  END
$$$$
