
     RDKit          3D

 22 23  0  0  0  0  0  0  0  0999 V2000
   15.7315   93.3329   62.5878 C   0  0  0  0  0  0  0  0  0  0  0  0
   15.1841   94.5344   63.0718 O   0  0  0  0  0  0  0  0  0  0  0  0
   13.8604   94.6690   63.4349 C   0  0  0  0  0  0  0  0  0  0  0  0
   13.0227   95.5038   62.7162 C   0  0  0  0  0  0  0  0  0  0  0  0
   11.6934   95.6815   63.0309 C   0  0  0  0  0  0  0  0  0  0  0  0
   10.9461   96.5654   62.2282 N   0  0  0  0  0  0  0  0  0  0  0  0
   10.8170   96.4847   60.8067 C   0  0  0  0  0  0  0  0  0  0  0  0
   11.7418   95.9205   60.1734 O   0  0  0  0  0  0  0  0  0  0  0  0
    9.6277   97.0505   60.1124 C   0  0  0  0  0  0  0  0  0  0  0  0
    9.6801   98.8070   59.8582 S   0  0  0  0  0  0  0  0  0  0  0  0
   10.7690   99.3276   58.5601 C   0  0  0  0  0  0  0  0  0  0  0  0
   11.7069   98.6771   57.8626 N   0  0  0  0  0  0  0  0  0  0  0  0
   12.2868   99.5086   56.9525 C   0  0  0  0  0  0  0  0  0  0  0  0
   13.3727   99.2013   55.9781 C   0  0  0  0  0  0  0  0  0  0  0  0
   11.6380  100.7119   57.1425 C   0  0  0  0  0  0  0  0  0  0  0  0
   11.9629  101.9249   56.3379 C   0  0  0  0  0  0  0  0  0  0  0  0
   10.7554  100.5699   58.0926 O   0  0  0  0  0  0  0  0  0  0  0  0
   11.2092   94.9826   64.1127 C   0  0  0  0  0  0  0  0  0  0  0  0
   11.9833   94.1330   64.8748 C   0  0  0  0  0  0  0  0  0  0  0  0
   11.4680   93.4355   65.9677 O   0  0  0  0  0  0  0  0  0  0  0  0
   12.3421   92.5872   66.6937 C   0  0  0  0  0  0  0  0  0  0  0  0
   13.3228   94.0009   64.4991 C   0  0  0  0  0  0  0  0  0  0  0  0
  1  2  1  0
  2  3  1  0
  3  4  2  0
  4  5  1  0
  5  6  1  0
  6  7  1  0
  7  8  2  0
  7  9  1  0
  9 10  1  0
 10 11  1  0
 11 12  2  0
 12 13  1  0
 13 14  1  0
 13 15  2  0
 15 16  1  0
 15 17  1  0
  5 18  2  0
 18 19  1  0
 19 20  1  0
 20 21  1  0
 19 22  2  0
 22  3  1  0
 17 11  1  0
M  END
$$$$
