
     RDKit          3D

 27 30  0  0  0  0  0  0  0  0999 V2000
   13.1577   96.1521   61.0362 O   0  0  0  0  0  0  0  0  0  0  0  0
   11.9267   95.9849   61.2329 C   0  0  0  0  0  0  0  0  0  0  0  0
   10.8928   96.6417   60.3866 C   0  0  0  0  0  0  0  0  0  0  0  0
   11.3237   97.7759   59.6983 N   0  0  0  0  0  0  0  0  0  0  0  0
   12.6967   97.9016   59.3502 C   0  0  0  0  0  0  0  0  0  0  0  0
   12.6667   98.3838   57.8709 C   0  0  0  0  0  0  0  0  0  0  0  0
   11.8639   99.6198   57.8090 N   0  0  0  0  0  0  0  0  0  0  0  0
   10.9998   99.9093   58.7942 C   0  0  0  0  0  0  0  0  0  0  0  0
   10.4732  101.1255   58.4497 N   0  0  0  0  0  0  0  0  0  0  0  0
   10.9899  101.5276   57.3357 N   0  0  0  0  0  0  0  0  0  0  0  0
   11.9007  100.5899   56.8689 C   0  0  0  0  0  0  0  0  0  0  0  0
   12.6674  100.8002   55.6552 C   0  0  0  0  0  0  0  0  0  0  0  0
   13.9651  101.3121   55.7815 C   0  0  0  0  0  0  0  0  0  0  0  0
   14.7563  101.5963   54.6961 C   0  0  0  0  0  0  0  0  0  0  0  0
   14.2691  101.3747   53.4276 C   0  0  0  0  0  0  0  0  0  0  0  0
   13.0193  100.8818   53.2589 C   0  0  0  0  0  0  0  0  0  0  0  0
   12.2321  100.6011   54.3881 C   0  0  0  0  0  0  0  0  0  0  0  0
   10.9960  100.1694   54.0948 F   0  0  0  0  0  0  0  0  0  0  0  0
   10.7406   99.0335   59.9564 C   0  0  0  0  0  0  0  0  0  0  0  0
   11.5617   95.1312   62.3112 N   0  0  0  0  0  0  0  0  0  0  0  0
   12.5734   94.3380   62.9629 C   0  0  0  0  0  0  0  0  0  0  0  0
   12.1360   93.4402   63.9065 C   0  0  0  0  0  0  0  0  0  0  0  0
   13.0291   92.6452   64.5774 C   0  0  0  0  0  0  0  0  0  0  0  0
   14.3748   92.7420   64.3093 C   0  0  0  0  0  0  0  0  0  0  0  0
   14.7919   93.6467   63.3613 C   0  0  0  0  0  0  0  0  0  0  0  0
   16.1414   93.7265   63.1087 F   0  0  0  0  0  0  0  0  0  0  0  0
   13.8928   94.4402   62.6924 C   0  0  0  0  0  0  0  0  0  0  0  0
  1  2  2  0
  2  3  1  0
  3  4  1  0
  4  5  1  0
  5  6  1  0
  6  7  1  0
  7  8  1  0
  8  9  2  0
  9 10  1  0
 10 11  2  0
 11 12  1  0
 12 13  2  0
 13 14  1  0
 14 15  2  0
 15 16  1  0
 16 17  2  0
 17 18  1  0
  8 19  1  0
  2 20  1  0
 20 21  1  0
 21 22  2  0
 22 23  1  0
 23 24  2  0
 24 25  1  0
 25 26  1  0
 25 27  2  0
 19  4  1  0
 27 21  1  0
 11  7  1  0
 17 12  1  0
M  END
$$$$
