
     RDKit          3D

 34 37  0  0  0  0  0  0  0  0999 V2000
   12.7893   97.3865   53.0726 C   0  0  0  0  0  0  0  0  0  0  0  0
   13.7018   98.5411   53.2955 C   0  0  0  0  0  0  0  0  0  0  0  0
   13.5332   99.4329   54.3157 C   0  0  0  0  0  0  0  0  0  0  0  0
   14.3613  100.5175   54.5530 C   0  0  0  0  0  0  0  0  0  0  0  0
   14.1403  101.4164   55.6293 N   0  0  0  0  0  0  0  0  0  0  0  0
   12.9625  101.3257   56.4431 C   0  0  0  0  0  0  0  0  0  0  0  0
   11.9660  102.2043   56.3872 N   0  0  0  0  0  0  0  0  0  0  0  0
   10.8815  102.0941   57.1586 C   0  0  0  0  0  0  0  0  0  0  0  0
   10.7824  101.0416   58.0427 C   0  0  0  0  0  0  0  0  0  0  0  0
   11.7993  100.1403   58.1037 C   0  0  0  0  0  0  0  0  0  0  0  0
   11.8070   98.9910   58.9959 C   0  0  0  0  0  0  0  0  0  0  0  0
   13.1584   97.9116   59.2776 S   0  0  0  0  0  0  0  0  0  0  0  0
   12.1790   96.8381   60.5170 C   0  0  0  0  0  0  0  0  0  0  0  0
   12.8898   95.7134   61.0986 N   0  0  0  0  0  0  0  0  0  0  0  0
   12.3341   95.0615   62.2395 C   0  0  0  0  0  0  0  0  0  0  0  0
   11.1618   94.6370   62.1594 O   0  0  0  0  0  0  0  0  0  0  0  0
   13.0757   94.8889   63.4443 N   0  0  0  0  0  0  0  0  0  0  0  0
   14.3160   95.6637   63.6116 C   0  0  0  0  0  0  0  0  0  0  0  0
   12.5688   93.9911   64.4453 C   0  0  0  0  0  0  0  0  0  0  0  0
   13.3988   92.7778   64.6343 C   0  0  0  0  0  0  0  0  0  0  0  0
   13.2008   91.6784   63.6530 C   0  0  0  0  0  0  0  0  0  0  0  0
   11.9883   91.0459   63.7611 F   0  0  0  0  0  0  0  0  0  0  0  0
   13.2378   92.2218   62.3672 F   0  0  0  0  0  0  0  0  0  0  0  0
   14.2405   90.7558   63.7778 F   0  0  0  0  0  0  0  0  0  0  0  0
   11.1660   97.4098   60.4905 N   0  0  0  0  0  0  0  0  0  0  0  0
   10.8097   98.4666   59.8156 C   0  0  0  0  0  0  0  0  0  0  0  0
    9.4597   99.1387   59.8497 C   0  0  0  0  0  0  0  0  0  0  0  0
   12.8668  100.2993   57.3049 N   0  0  0  0  0  0  0  0  0  0  0  0
   15.4172  100.6799   53.6831 C   0  0  0  0  0  0  0  0  0  0  0  0
   16.4216  101.6315   53.6213 C   0  0  0  0  0  0  0  0  0  0  0  0
   17.2016  101.3255   52.5698 N   0  0  0  0  0  0  0  0  0  0  0  0
   16.7503  100.2429   51.9685 N   0  0  0  0  0  0  0  0  0  0  0  0
   15.6487   99.8165   52.6291 C   0  0  0  0  0  0  0  0  0  0  0  0
   14.7889   98.7561   52.4460 C   0  0  0  0  0  0  0  0  0  0  0  0
  1  2  1  0
  2  3  2  0
  3  4  1  0
  4  5  1  0
  5  6  1  0
  6  7  2  0
  7  8  1  0
  8  9  2  0
  9 10  1  0
 10 11  1  0
 11 12  1  0
 12 13  1  0
 13 14  1  0
 14 15  1  0
 15 16  2  0
 15 17  1  0
 17 18  1  0
 17 19  1  0
 19 20  1  0
 20 21  1  0
 21 22  1  0
 21 23  1  0
 21 24  1  0
 13 25  2  0
 25 26  1  0
 26 27  1  0
 10 28  2  0
  4 29  2  0
 29 30  1  0
 30 31  2  0
 31 32  1  0
 32 33  1  0
 33 34  2  0
 34  2  1  0
 28  6  1  0
 33 29  1  0
 26 11  2  0
M  END
$$$$
