
     RDKit          3D

 28 32  0  0  0  0  0  0  0  0999 V2000
   12.3691   54.1745   11.9618 N   0  0  0  0  0  0  0  0  0  0  0  0
   12.6884   55.2877   12.0898 C   0  0  0  0  0  0  0  0  0  0  0  0
   13.0983   56.6887   12.2758 C   0  0  0  0  0  0  0  0  0  0  0  0
   12.3306   57.5665   11.6052 C   0  0  0  0  0  0  0  0  0  0  0  0
   11.2520   57.1031   10.8099 N   0  0  0  0  0  0  0  0  0  0  0  0
   12.5933   58.9321   11.7143 O   0  0  0  0  0  0  0  0  0  0  0  0
   13.6383   59.3773   12.5226 C   0  0  0  0  0  0  0  0  0  0  0  0
   14.4070   58.5080   13.2077 C   0  0  0  0  0  0  0  0  0  0  0  0
   15.4280   59.0239   14.0076 C   0  0  0  0  0  0  0  0  0  0  0  0
   16.1348   58.2093   14.6446 O   0  0  0  0  0  0  0  0  0  0  0  0
   15.6179   60.3121   14.0736 O   0  0  0  0  0  0  0  0  0  0  0  0
   14.9203   61.2045   13.4405 C   0  0  0  0  0  0  0  0  0  0  0  0
   15.1221   62.5665   13.5064 C   0  0  0  0  0  0  0  0  0  0  0  0
   14.3160   63.4255   12.7841 C   0  0  0  0  0  0  0  0  0  0  0  0
   13.3118   62.9389   11.9975 C   0  0  0  0  0  0  0  0  0  0  0  0
   13.0742   61.6043   11.9014 C   0  0  0  0  0  0  0  0  0  0  0  0
   13.8840   60.7545   12.6266 C   0  0  0  0  0  0  0  0  0  0  0  0
   14.2463   57.0394   13.0658 C   0  0  0  0  0  0  0  0  0  0  0  0
   14.2070   56.3973   14.3738 C   0  0  0  0  0  0  0  0  0  0  0  0
   13.3518   56.4328   15.2561 O   0  0  0  0  0  0  0  0  0  0  0  0
   15.4200   55.6404   14.5071 N   0  0  0  0  0  0  0  0  0  0  0  0
   16.1744   55.7550   13.3163 C   0  0  0  0  0  0  0  0  0  0  0  0
   17.4292   55.2075   12.9740 C   0  0  0  0  0  0  0  0  0  0  0  0
   17.9691   55.4786   11.7343 C   0  0  0  0  0  0  0  0  0  0  0  0
   17.3044   56.2702   10.8338 C   0  0  0  0  0  0  0  0  0  0  0  0
   17.8641   56.5214    9.6412 F   0  0  0  0  0  0  0  0  0  0  0  0
   16.0721   56.7914   11.2058 C   0  0  0  0  0  0  0  0  0  0  0  0
   15.5251   56.5403   12.4156 C   0  0  0  0  0  0  0  0  0  0  0  0
  1  2  3  0
  2  3  1  0
  3  4  2  0
  4  5  1  0
  4  6  1  0
  6  7  1  0
  7  8  2  0
  8  9  1  0
  9 10  2  0
  9 11  1  0
 11 12  1  0
 12 13  2  0
 13 14  1  0
 14 15  2  0
 15 16  1  0
 16 17  2  0
  8 18  1  0
 18 19  1  0
 19 20  2  0
 19 21  1  0
 21 22  1  0
 22 23  2  0
 23 24  1  0
 24 25  2  0
 25 26  1  0
 25 27  1  0
 27 28  2  0
 18  3  1  0
 28 22  1  0
 17  7  1  0
 28 18  1  0
 17 12  1  0
M  END
$$$$
