
     RDKit          3D

 22 23  0  0  0  0  0  0  0  0999 V2000
   12.9071   95.2028   61.4086 O   0  0  0  0  0  0  0  0  0  0  0  0
   12.2778   95.1370   62.4929 C   0  0  0  0  0  0  0  0  0  0  0  0
   12.9022   94.4352   63.6191 C   0  0  0  0  0  0  0  0  0  0  0  0
   14.0141   93.5328   63.1799 C   0  0  0  0  0  0  0  0  0  0  0  0
   14.7709   92.9256   64.3035 C   0  0  1  0  0  0  0  0  0  0  0  0
   13.9726   92.1104   65.2530 C   0  0  0  0  0  0  0  0  0  0  0  0
   14.8730   90.9145   65.4885 C   0  0  0  0  0  0  0  0  0  0  0  0
   15.6244   90.8506   64.1770 C   0  0  0  0  0  0  0  0  0  0  0  0
   15.8408   92.1831   63.8630 O   0  0  0  0  0  0  0  0  0  0  0  0
   10.9963   95.7512   62.5533 N   0  0  0  0  0  0  0  0  0  0  0  0
   10.2023   96.0813   61.4179 C   0  0  0  0  0  0  0  0  0  0  0  0
   10.7083   97.2656   60.6386 C   0  0  0  0  0  0  0  0  0  0  0  0
   11.9507   97.3449   60.4837 O   0  0  0  0  0  0  0  0  0  0  0  0
    9.8713   98.2571   60.0971 N   0  0  0  0  0  0  0  0  0  0  0  0
   10.2515   99.3470   59.2886 C   0  0  0  0  0  0  0  0  0  0  0  0
    9.4242  100.3583   58.9199 C   0  0  0  0  0  0  0  0  0  0  0  0
    9.8563  101.4109   58.1181 C   0  0  0  0  0  0  0  0  0  0  0  0
   11.1558  101.4396   57.6800 C   0  0  0  0  0  0  0  0  0  0  0  0
   11.6892  102.7688   56.6714 Cl  0  0  0  0  0  0  0  0  0  0  0  0
   12.0152  100.4247   58.0405 C   0  0  0  0  0  0  0  0  0  0  0  0
   13.2883  100.5021   57.5802 F   0  0  0  0  0  0  0  0  0  0  0  0
   11.5674   99.4133   58.8214 C   0  0  0  0  0  0  0  0  0  0  0  0
  1  2  2  0
  2  3  1  0
  3  4  1  0
  5  4  1  6
  5  6  1  0
  6  7  1  0
  7  8  1  0
  8  9  1  0
  2 10  1  0
 10 11  1  0
 11 12  1  0
 12 13  2  0
 12 14  1  0
 14 15  1  0
 15 16  2  0
 16 17  1  0
 17 18  2  0
 18 19  1  0
 18 20  1  0
 20 21  1  0
 20 22  2  0
  9  5  1  0
 22 15  1  0
M  END
$$$$
