
     RDKit          3D

 23 25  0  0  0  0  0  0  0  0999 V2000
   16.7237  101.3462   50.0760 C   0  0  0  0  0  0  0  0  0  0  0  0
   15.7946  100.7584   51.0481 N   0  0  0  0  0  0  0  0  0  0  0  0
   15.9437  101.1552   52.3181 C   0  0  0  0  0  0  0  0  0  0  0  0
   16.8303  101.9884   52.6737 O   0  0  0  0  0  0  0  0  0  0  0  0
   15.1163  100.6528   53.2836 C   0  0  0  0  0  0  0  0  0  0  0  0
   14.1517   99.7427   52.8804 C   0  0  0  0  0  0  0  0  0  0  0  0
   13.4890   99.4143   54.0025 N   0  0  0  0  0  0  0  0  0  0  0  0
   14.0207  100.0902   55.0463 C   0  0  0  0  0  0  0  0  0  0  0  0
   13.5704  100.0007   56.4389 C   0  0  0  0  0  0  0  0  0  0  0  0
   12.6361   99.1611   56.7981 C   0  0  0  0  0  0  0  0  0  0  0  0
   12.1093   98.9866   58.1149 C   0  0  0  0  0  0  0  0  0  0  0  0
   11.2788   99.9979   58.6274 C   0  0  0  0  0  0  0  0  0  0  0  0
   10.7181   99.9344   59.8805 C   0  0  0  0  0  0  0  0  0  0  0  0
   10.9605   98.8476   60.6932 C   0  0  0  0  0  0  0  0  0  0  0  0
   11.7752   97.8543   60.1921 C   0  0  0  0  0  0  0  0  0  0  0  0
   12.3419   97.9232   58.9198 C   0  0  0  0  0  0  0  0  0  0  0  0
   13.1165   96.8837   58.5589 F   0  0  0  0  0  0  0  0  0  0  0  0
   15.0276  100.8573   54.6051 N   0  0  0  0  0  0  0  0  0  0  0  0
   15.8904  101.7545   55.3580 C   0  0  0  0  0  0  0  0  0  0  0  0
   14.0223   99.3609   51.6016 N   0  0  0  0  0  0  0  0  0  0  0  0
   13.0230   98.4122   51.1559 C   0  0  0  0  0  0  0  0  0  0  0  0
   14.8540   99.8773   50.6853 C   0  0  0  0  0  0  0  0  0  0  0  0
   14.7903   99.5620   49.4556 O   0  0  0  0  0  0  0  0  0  0  0  0
  1  2  1  0
  2  3  1  0
  3  4  2  0
  3  5  1  0
  5  6  2  0
  6  7  1  0
  7  8  2  0
  8  9  1  0
  9 10  2  0
 10 11  1  0
 11 12  2  0
 12 13  1  0
 13 14  2  0
 14 15  1  0
 15 16  2  0
 16 17  1  0
  8 18  1  0
 18 19  1  0
  6 20  1  0
 20 21  1  0
 20 22  1  0
 22 23  2  0
 22  2  1  0
 18  5  1  0
 16 11  1  0
M  END
$$$$
