
     RDKit          3D

 33 35  0  0  0  0  0  0  0  0999 V2000
   15.1988   48.7734   20.7261 C   0  0  0  0  0  0  0  0  0  0  0  0
   14.0216   48.3860   19.8640 C   0  0  0  0  0  0  0  0  0  0  0  0
   14.4289   47.8972   18.4905 C   0  0  0  0  0  0  0  0  0  0  0  0
   13.3017   47.2174   17.7851 C   0  0  0  0  0  0  0  0  0  0  0  0
   14.9069   49.0325   17.6675 C   0  0  0  0  0  0  0  0  0  0  0  0
   14.0881   50.0126   17.1599 C   0  0  0  0  0  0  0  0  0  0  0  0
   14.6441   51.0450   16.4003 C   0  0  0  0  0  0  0  0  0  0  0  0
   15.9732   51.1456   16.1239 C   0  0  0  0  0  0  0  0  0  0  0  0
   16.5898   52.1553   15.3682 N   0  0  0  0  0  0  0  0  0  0  0  0
   15.9530   53.3658   14.9765 C   0  0  0  0  0  0  0  0  0  0  0  0
   14.7150   53.8042   15.2306 N   0  0  0  0  0  0  0  0  0  0  0  0
   14.4965   55.0093   14.6829 C   0  0  0  0  0  0  0  0  0  0  0  0
   13.4178   55.8688   14.6532 C   0  0  0  0  0  0  0  0  0  0  0  0
   13.4841   57.0877   13.9864 C   0  0  0  0  0  0  0  0  0  0  0  0
   12.2956   57.9927   13.9758 C   0  0  0  0  0  0  0  0  0  0  0  0
   14.6406   57.4612   13.3372 C   0  0  0  0  0  0  0  0  0  0  0  0
   14.6983   58.7171   12.6533 N   0  0  0  0  0  0  0  0  0  0  0  0
   15.6639   59.7019   12.9399 C   0  0  0  0  0  0  0  0  0  0  0  0
   16.5315   59.4272   13.8071 O   0  0  0  0  0  0  0  0  0  0  0  0
   15.6319   60.9973   12.2317 C   0  0  0  0  0  0  0  0  0  0  0  0
   14.4551   60.9757   11.2862 C   0  0  0  0  0  0  0  0  0  0  0  0
   15.5384   62.1660   13.1864 C   0  0  0  0  0  0  0  0  0  0  0  0
   15.7066   56.5920   13.3770 C   0  0  0  0  0  0  0  0  0  0  0  0
   15.6543   55.3718   14.0390 C   0  0  0  0  0  0  0  0  0  0  0  0
   16.5171   54.3641   14.2305 N   0  0  0  0  0  0  0  0  0  0  0  0
   17.8586   54.3763   13.7045 C   0  0  0  0  0  0  0  0  0  0  0  0
   17.8717   53.5255   12.4564 C   0  0  0  0  0  0  0  0  0  0  0  0
   17.5233   54.2997   11.3833 O   0  0  0  0  0  0  0  0  0  0  0  0
   17.6252   53.6720   10.1640 C   0  0  0  0  0  0  0  0  0  0  0  0
   17.3549   54.6228    9.0066 C   0  0  0  0  0  0  0  0  0  0  0  0
   18.5736   55.2933    8.7626 O   0  0  0  0  0  0  0  0  0  0  0  0
   16.7851   50.1422   16.6475 C   0  0  0  0  0  0  0  0  0  0  0  0
   16.2694   49.1250   17.3909 C   0  0  0  0  0  0  0  0  0  0  0  0
  1  2  1  0
  2  3  1  0
  3  4  1  0
  3  5  1  0
  5  6  2  0
  6  7  1  0
  7  8  2  0
  8  9  1  0
  9 10  1  0
 10 11  2  0
 11 12  1  0
 12 13  2  0
 13 14  1  0
 14 15  1  0
 14 16  2  0
 16 17  1  0
 17 18  1  0
 18 19  2  0
 18 20  1  0
 20 21  1  0
 20 22  1  0
 16 23  1  0
 23 24  2  0
 24 25  1  0
 25 26  1  0
 26 27  1  0
 27 28  1  0
 28 29  1  0
 29 30  1  0
 30 31  1  0
  8 32  1  0
 32 33  2  0
 33  5  1  0
 25 10  1  0
 24 12  1  0
M  END
$$$$
