
     RDKit          3D

 17 18  0  0  0  0  0  0  0  0999 V2000
   38.9804   80.0786   50.6170 O   0  0  0  0  0  0  0  0  0  0  0  0
   38.3048   81.2789   49.9988 S   0  0  0  0  0  4  0  0  0  0  0  0
   39.3420   82.6028   49.8313 O   0  0  0  0  0  0  0  0  0  0  0  0
   36.8069   81.7155   50.8576 C   0  0  0  0  0  0  0  0  0  0  0  0
   36.7494   81.6420   52.2357 C   0  0  0  0  0  0  0  0  0  0  0  0
   35.5516   81.9948   52.8669 C   0  0  0  0  0  0  0  0  0  0  0  0
   34.4597   82.4036   52.1436 C   0  0  0  0  0  0  0  0  0  0  0  0
   33.3038   82.7422   52.7796 O   0  0  0  0  0  0  0  0  0  0  0  0
   32.0276   82.4800   52.3134 C   0  0  0  0  0  0  0  0  0  0  0  0
   31.0084   83.4017   52.4306 C   0  0  0  0  0  0  0  0  0  0  0  0
   29.7662   83.0566   51.9380 C   0  0  0  0  0  0  0  0  0  0  0  0
   29.5457   81.8178   51.3409 C   0  0  0  0  0  0  0  0  0  0  0  0
   27.9317   81.4790   50.7483 Cl  0  0  0  0  0  0  0  0  0  0  0  0
   30.5587   80.8946   51.2214 C   0  0  0  0  0  0  0  0  0  0  0  0
   31.7943   81.2532   51.7180 C   0  0  0  0  0  0  0  0  0  0  0  0
   34.5545   82.4640   50.7771 C   0  0  0  0  0  0  0  0  0  0  0  0
   35.7272   82.1220   50.1068 C   0  0  0  0  0  0  0  0  0  0  0  0
  1  2  2  0
  2  3  1  0
  2  4  1  0
  4  5  2  0
  5  6  1  0
  6  7  2  0
  7  8  1  0
  8  9  1  0
  9 10  2  0
 10 11  1  0
 11 12  2  0
 12 13  1  0
 12 14  1  0
 14 15  2  0
  7 16  1  0
 16 17  2  0
 17  4  1  0
 15  9  1  0
M  END
$$$$
