
     RDKit          3D

 31 34  0  0  0  0  0  0  0  0999 V2000
   33.2076   84.6445   43.3323 C   0  0  0  0  0  0  0  0  0  0  0  0
   32.4797   83.6475   44.1240 C   0  0  0  0  0  0  0  0  0  0  0  0
   31.2466   83.1969   43.8437 N   0  0  0  0  0  0  0  0  0  0  0  0
   30.8766   82.3372   44.7081 O   0  0  0  0  0  0  0  0  0  0  0  0
   31.8145   82.1601   45.6018 C   0  0  0  0  0  0  0  0  0  0  0  0
   31.7835   81.2397   46.7824 C   0  0  0  0  0  0  0  0  0  0  0  0
   32.8579   82.9692   45.2792 C   0  0  0  0  0  0  0  0  0  0  0  0
   34.1763   83.1597   45.9397 C   0  0  0  0  0  0  0  0  0  0  0  0
   35.1641   81.6835   45.7229 S   0  0  0  0  0  0  0  0  0  0  0  0
   35.4671   80.8233   47.2537 C   0  0  0  0  0  0  0  0  0  0  0  0
   35.6114   79.5252   47.5110 N   0  0  0  0  0  0  0  0  0  0  0  0
   35.8212   79.3717   48.8061 N   0  0  0  0  0  0  0  0  0  0  0  0
   35.8090   80.5880   49.3728 C   0  0  0  0  0  0  0  0  0  0  0  0
   36.0042   80.9156   50.8279 C   0  0  0  0  0  0  0  0  0  0  0  0
   37.4606   81.1340   51.0582 C   0  0  0  0  0  0  0  0  0  0  0  0
   37.8015   82.3946   51.7423 C   0  0  0  0  0  0  0  0  0  0  0  0
   39.0122   82.4660   52.4030 C   0  0  0  0  0  0  0  0  0  0  0  0
   39.3543   83.6339   53.0496 C   0  0  0  0  0  0  0  0  0  0  0  0
   38.5424   84.7468   53.0715 C   0  0  0  0  0  0  0  0  0  0  0  0
   37.3399   84.6524   52.4059 C   0  0  0  0  0  0  0  0  0  0  0  0
   36.9655   83.4899   51.7446 C   0  0  0  0  0  0  0  0  0  0  0  0
   35.6439   83.4162   51.0250 C   0  0  0  0  0  0  0  0  0  0  0  0
   35.1875   82.0517   51.2033 N   0  0  0  0  0  0  0  0  0  0  0  0
   33.9191   81.8028   51.7548 C   0  0  0  0  0  0  0  0  0  0  0  0
   33.5501   82.4477   52.7733 O   0  0  0  0  0  0  0  0  0  0  0  0
   33.0165   80.8842   51.2606 O   0  0  0  0  0  0  0  0  0  0  0  0
   31.6251   81.0908   51.2250 C   0  0  0  0  0  0  0  0  0  0  0  0
   30.9192   80.0274   50.4073 C   0  0  0  0  0  0  0  0  0  0  0  0
   31.2234   82.4277   50.7052 C   0  0  0  0  0  0  0  0  0  0  0  0
   31.0992   80.9465   52.6365 C   0  0  0  0  0  0  0  0  0  0  0  0
   35.5923   81.4407   48.4037 O   0  0  0  0  0  0  0  0  0  0  0  0
  1  2  1  0
  2  3  2  0
  3  4  1  0
  4  5  1  0
  5  6  1  0
  5  7  2  0
  7  8  1  0
  8  9  1  0
  9 10  1  0
 10 11  2  0
 11 12  1  0
 12 13  2  0
 13 14  1  0
 14 15  1  0
 15 16  1  0
 16 17  2  0
 17 18  1  0
 18 19  2  0
 19 20  1  0
 20 21  2  0
 21 22  1  0
 22 23  1  0
 23 24  1  0
 24 25  2  0
 24 26  1  0
 26 27  1  0
 27 28  1  0
 27 29  1  0
 27 30  1  0
 13 31  1  0
  7  2  1  0
 31 10  1  0
 23 14  1  0
 21 16  1  0
M  END
$$$$
