
     RDKit          3D

 22 23  0  0  0  0  0  0  0  0999 V2000
   16.2110   46.6455   20.3923 C   0  0  0  0  0  0  0  0  0  0  0  0
   15.2493   47.8249   20.5708 C   0  0  1  0  0  0  0  0  0  0  0  0
   15.6037   48.9821   19.7177 C   0  0  0  0  0  0  0  0  0  0  0  0
   15.0554   48.9204   18.3897 N   0  0  0  0  0  0  0  0  0  0  0  0
   15.4446   49.7033   17.3128 C   0  0  0  0  0  0  0  0  0  0  0  0
   14.6004   50.7119   16.8395 C   0  0  0  0  0  0  0  0  0  0  0  0
   14.9593   51.5075   15.7700 C   0  0  0  0  0  0  0  0  0  0  0  0
   16.1639   51.3350   15.1308 C   0  0  0  0  0  0  0  0  0  0  0  0
   16.5256   52.1572   14.0320 N   0  0  0  0  0  0  0  0  0  0  0  0
   16.1168   53.5108   13.8979 C   0  0  0  0  0  0  0  0  0  0  0  0
   15.6685   54.1117   14.8907 O   0  0  0  0  0  0  0  0  0  0  0  0
   16.2235   54.2010   12.5871 C   0  0  0  0  0  0  0  0  0  0  0  0
   17.0322   55.4536   12.6693 C   0  0  0  0  0  0  0  0  0  0  0  0
   18.3322   55.1354   13.3678 C   0  0  0  0  0  0  0  0  0  0  0  0
   17.3202   56.0069   11.2970 C   0  0  0  0  0  0  0  0  0  0  0  0
   16.2893   56.4955   13.4857 C   0  0  0  0  0  0  0  0  0  0  0  0
   17.0014   50.3588   15.5751 C   0  0  0  0  0  0  0  0  0  0  0  0
   16.6428   49.5638   16.6437 C   0  0  0  0  0  0  0  0  0  0  0  0
   17.7371   48.3351   17.1757 Cl  0  0  0  0  0  0  0  0  0  0  0  0
   13.9935   47.9321   18.1917 C   0  0  0  0  0  0  0  0  0  0  0  0
   13.2029   47.9156   19.4890 C   0  0  0  0  0  0  0  0  0  0  0  0
   13.9821   47.3425   20.4517 O   0  0  0  0  0  0  0  0  0  0  0  0
  2  1  1  6
  2  3  1  0
  3  4  1  0
  4  5  1  0
  5  6  2  0
  6  7  1  0
  7  8  2  0
  8  9  1  0
  9 10  1  0
 10 11  2  0
 10 12  1  0
 12 13  1  0
 13 14  1  0
 13 15  1  0
 13 16  1  0
  8 17  1  0
 17 18  2  0
 18 19  1  0
  4 20  1  0
 20 21  1  0
 21 22  1  0
 22  2  1  0
 18  5  1  0
M  END
$$$$
