
     RDKit          3D

 20 22  0  0  0  0  0  0  0  0999 V2000
   18.0827   57.4838   12.8591 C   0  0  0  0  0  0  0  0  0  0  0  0
   16.3596   57.1050   12.6308 S   0  0  0  0  0  6  0  0  0  0  0  0
   16.0793   57.1429   11.1776 O   0  0  0  0  0  0  0  0  0  0  0  0
   15.4864   58.2836   13.2420 N   0  0  0  0  0  0  0  0  0  0  0  0
   14.2219   58.4127   12.6159 C   0  0  0  0  0  0  0  0  0  0  0  0
   13.7561   57.3689   11.9129 N   0  0  0  0  0  0  0  0  0  0  0  0
   12.5464   57.4233   11.2842 C   0  0  0  0  0  0  0  0  0  0  0  0
   11.7669   58.5140   11.3358 N   0  0  0  0  0  0  0  0  0  0  0  0
   12.2235   59.5747   12.0411 C   0  0  0  0  0  0  0  0  0  0  0  0
   11.7202   60.8044   12.3018 N   0  0  0  0  0  0  0  0  0  0  0  0
   12.5822   61.4955   13.0657 C   0  0  0  0  0  0  0  0  0  0  0  0
   13.6393   60.7023   13.2925 N   0  0  0  0  0  0  0  0  0  0  0  0
   13.4430   59.5381   12.6828 C   0  0  0  0  0  0  0  0  0  0  0  0
   16.0033   55.5864   13.3818 C   0  0  0  0  0  0  0  0  0  0  0  0
   15.2655   55.4613   14.5332 C   0  0  0  0  0  0  0  0  0  0  0  0
   15.0119   54.2261   15.0885 C   0  0  0  0  0  0  0  0  0  0  0  0
   15.4988   53.0858   14.4920 C   0  0  0  0  0  0  0  0  0  0  0  0
   15.2508   51.8541   15.0381 F   0  0  0  0  0  0  0  0  0  0  0  0
   16.2447   53.2035   13.3292 C   0  0  0  0  0  0  0  0  0  0  0  0
   16.4893   54.4453   12.7869 C   0  0  0  0  0  0  0  0  0  0  0  0
  1  2  1  0
  2  3  2  0
  2  4  2  0
  4  5  1  0
  5  6  2  0
  6  7  1  0
  7  8  2  0
  8  9  1  0
  9 10  1  0
 10 11  2  0
 11 12  1  0
 12 13  1  0
  2 14  1  0
 14 15  2  0
 15 16  1  0
 16 17  2  0
 17 18  1  0
 17 19  1  0
 19 20  2  0
 13  5  1  0
 20 14  1  0
 13  9  2  0
M  END
$$$$
