
     RDKit          3D

 33 36  0  0  0  0  0  0  0  0999 V2000
   15.0042   51.3638   16.9058 O   0  0  0  0  0  0  0  0  0  0  0  0
   16.1138   50.8128   16.7392 C   0  0  0  0  0  0  0  0  0  0  0  0
   17.0216   51.3322   15.8074 N   0  0  0  0  0  0  0  0  0  0  0  0
   17.2260   52.7385   15.5519 C   0  0  0  0  0  0  0  0  0  0  0  0
   16.6557   53.1015   14.2252 C   0  0  0  0  0  0  0  0  0  0  0  0
   15.9896   54.4562   14.1908 C   0  0  0  0  0  0  0  0  0  0  0  0
   16.9689   55.5843   14.0901 C   0  0  0  0  0  0  0  0  0  0  0  0
   16.6080   56.7603   14.9285 C   0  0  0  0  0  0  0  0  0  0  0  0
   15.4422   57.5484   14.3854 C   0  0  0  0  0  0  0  0  0  0  0  0
   15.7390   59.0351   14.3708 C   0  0  0  0  0  0  0  0  0  0  0  0
   15.8254   59.5499   13.0164 N   0  0  0  0  0  0  0  0  0  0  0  0
   14.6389   60.0495   12.4181 C   0  0  0  0  0  0  0  0  0  0  0  0
   14.3452   61.3839   12.5550 C   0  0  0  0  0  0  0  0  0  0  0  0
   13.2035   61.9026   11.9846 C   0  0  0  0  0  0  0  0  0  0  0  0
   12.3502   61.1021   11.2780 N   0  0  0  0  0  0  0  0  0  0  0  0
   12.6194   59.7932   11.1326 C   0  0  0  0  0  0  0  0  0  0  0  0
   11.7501   59.0018   10.4187 C   0  0  0  0  0  0  0  0  0  0  0  0
   11.9922   57.6566   10.2483 C   0  0  0  0  0  0  0  0  0  0  0  0
   13.1329   57.1363   10.8175 C   0  0  0  0  0  0  0  0  0  0  0  0
   14.0253   57.9252   11.5448 C   0  0  0  0  0  0  0  0  0  0  0  0
   13.7567   59.2506   11.6944 C   0  0  0  0  0  0  0  0  0  0  0  0
   12.9018   63.3442   12.1357 C   0  0  0  0  0  0  0  0  0  0  0  0
   13.2845   63.8861   13.4682 C   0  0  0  0  0  0  0  0  0  0  0  0
   14.3967   63.2031   14.1723 C   0  0  0  0  0  0  0  0  0  0  0  0
   15.2259   62.2755   13.3070 C   0  0  0  0  0  0  0  0  0  0  0  0
   16.4101   49.6429   17.5338 N   0  0  0  0  0  0  0  0  0  0  0  0
   15.4322   49.1651   18.4340 C   0  0  0  0  0  0  0  0  0  0  0  0
   14.0829   49.3792   18.2166 C   0  0  0  0  0  0  0  0  0  0  0  0
   13.1017   48.9236   19.0783 C   0  0  0  0  0  0  0  0  0  0  0  0
   13.4582   48.2230   20.2104 C   0  0  0  0  0  0  0  0  0  0  0  0
   12.4970   47.7691   21.0669 F   0  0  0  0  0  0  0  0  0  0  0  0
   14.8006   48.0043   20.4363 C   0  0  0  0  0  0  0  0  0  0  0  0
   15.7864   48.4617   19.5710 C   0  0  0  0  0  0  0  0  0  0  0  0
  1  2  2  0
  2  3  1  0
  3  4  1  0
  4  5  1  0
  5  6  1  0
  6  7  1  0
  7  8  1  0
  8  9  1  0
  9 10  1  0
 10 11  1  0
 11 12  1  0
 12 13  2  0
 13 14  1  0
 14 15  2  0
 15 16  1  0
 16 17  2  0
 17 18  1  0
 18 19  2  0
 19 20  1  0
 20 21  2  0
 14 22  1  0
 22 23  1  0
 23 24  1  0
 24 25  1  0
  2 26  1  0
 26 27  1  0
 27 28  2  0
 28 29  1  0
 29 30  2  0
 30 31  1  0
 30 32  1  0
 32 33  2  0
 21 12  1  0
 33 27  1  0
 25 13  1  0
 21 16  1  0
M  END
$$$$
