
     RDKit          3D

 37 41  0  0  0  0  0  0  0  0999 V2000
   15.3130   62.1033   19.5270 C   0  0  0  0  0  0  0  0  0  0  0  0
   14.7413   61.3254   18.6541 C   0  0  0  0  0  0  0  0  0  0  0  0
   14.7196   61.3637   17.2248 C   0  0  0  0  0  0  0  0  0  0  0  0
   13.7458   62.0845   16.7297 O   0  0  0  0  0  0  0  0  0  0  0  0
   15.5924   60.7385   16.3276 N   0  0  0  0  0  0  0  0  0  0  0  0
   17.0031   60.9023   16.3070 C   0  0  0  0  0  0  0  0  0  0  0  0
   17.5497   60.1035   15.1095 C   0  0  0  0  0  0  0  0  0  0  0  0
   16.8326   60.5886   13.8903 C   0  0  0  0  0  0  0  0  0  0  0  0
   15.3478   60.3258   13.9201 C   0  0  1  0  0  0  0  0  0  0  0  0
   15.0356   59.2790   12.9729 N   0  0  0  0  0  0  0  0  0  0  0  0
   13.7507   59.1931   12.3849 C   0  0  0  0  0  0  0  0  0  0  0  0
   12.9592   60.2863   12.2576 N   0  0  0  0  0  0  0  0  0  0  0  0
   11.7416   60.2935   11.7193 C   0  0  0  0  0  0  0  0  0  0  0  0
   10.9631   61.5002   11.6212 N   0  0  0  0  0  0  0  0  0  0  0  0
   11.3354   62.7361   12.1653 C   0  0  0  0  0  0  0  0  0  0  0  0
   12.3003   63.0128   13.0990 C   0  0  0  0  0  0  0  0  0  0  0  0
   12.2571   64.3627   13.2786 N   0  0  0  0  0  0  0  0  0  0  0  0
   11.3412   64.9099   12.5241 N   0  0  0  0  0  0  0  0  0  0  0  0
   10.9984   66.3257   12.4383 C   0  0  0  0  0  0  0  0  0  0  0  0
   10.0123   66.6405   13.5588 C   0  0  0  0  0  0  0  0  0  0  0  0
   10.7538   63.9359   11.8247 C   0  0  0  0  0  0  0  0  0  0  0  0
   11.2681   59.1145   11.2682 N   0  0  0  0  0  0  0  0  0  0  0  0
   11.9557   57.9645   11.3378 C   0  0  0  0  0  0  0  0  0  0  0  0
   11.6768   56.7070   10.9570 N   0  0  0  0  0  0  0  0  0  0  0  0
   12.7204   55.9187   11.2584 C   0  0  0  0  0  0  0  0  0  0  0  0
   13.7048   56.7253   11.8597 C   0  0  0  0  0  0  0  0  0  0  0  0
   14.9813   56.1922   12.3150 C   0  0  0  0  0  0  0  0  0  0  0  0
   16.1671   56.5538   11.7193 C   0  0  0  0  0  0  0  0  0  0  0  0
   17.3835   56.0489   12.1785 C   0  0  0  0  0  0  0  0  0  0  0  0
   17.3991   55.1674   13.2536 C   0  0  0  0  0  0  0  0  0  0  0  0
   16.2265   54.7995   13.8552 C   0  0  0  0  0  0  0  0  0  0  0  0
   16.2285   53.9217   14.9276 O   0  0  0  0  0  0  0  0  0  0  0  0
   17.3921   53.1681   15.2052 C   0  0  0  0  0  0  0  0  0  0  0  0
   15.0232   55.3193   13.3762 C   0  0  0  0  0  0  0  0  0  0  0  0
   13.7872   54.9052   14.0425 C   0  0  0  0  0  0  0  0  0  0  0  0
   13.2301   58.0094   11.9119 C   0  0  0  0  0  0  0  0  0  0  0  0
   15.0176   59.8321   15.3209 C   0  0  0  0  0  0  0  0  0  0  0  0
  1  2  2  0
  2  3  1  0
  3  4  2  0
  3  5  1  0
  5  6  1  0
  6  7  1  0
  7  8  1  0
  8  9  1  0
  9 10  1  6
 10 11  1  0
 11 12  2  0
 12 13  1  0
 13 14  1  0
 14 15  1  0
 15 16  1  0
 16 17  2  0
 17 18  1  0
 18 19  1  0
 19 20  1  0
 18 21  1  0
 13 22  2  0
 22 23  1  0
 23 24  1  0
 24 25  1  0
 25 26  2  0
 26 27  1  0
 27 28  2  0
 28 29  1  0
 29 30  2  0
 30 31  1  0
 31 32  1  0
 32 33  1  0
 31 34  2  0
 34 35  1  0
 26 36  1  0
  9 37  1  0
 37  5  1  0
 36 11  1  0
 21 15  2  0
 36 23  2  0
 34 27  1  0
M  END
$$$$
