
     RDKit          3D

 23 24  0  0  0  0  0  0  0  0999 V2000
   16.2559   47.6598   21.0121 C   0  0  0  0  0  0  0  0  0  0  0  0
   15.5627   47.5204   19.6745 C   0  0  0  0  0  0  0  0  0  0  0  0
   15.9068   46.1808   19.1057 C   0  0  0  0  0  0  0  0  0  0  0  0
   15.8666   48.6356   18.7547 C   0  0  0  0  0  0  0  0  0  0  0  0
   17.0809   48.9902   18.2795 N   0  0  0  0  0  0  0  0  0  0  0  0
   16.9582   50.0213   17.4952 N   0  0  0  0  0  0  0  0  0  0  0  0
   15.6603   50.3896   17.4201 C   0  0  0  0  0  0  0  0  0  0  0  0
   15.1475   51.5145   16.6265 C   0  0  0  0  0  0  0  0  0  0  0  0
   16.2070   52.0498   15.7730 N   0  0  0  0  0  0  0  0  0  0  0  0
   15.9386   52.3847   14.4226 C   0  0  0  0  0  0  0  0  0  0  0  0
   14.8176   52.1270   13.9441 O   0  0  0  0  0  0  0  0  0  0  0  0
   16.9731   53.0208   13.6235 C   0  0  0  0  0  0  0  0  0  0  0  0
   17.1181   52.2845   12.2856 C   0  0  0  0  0  0  0  0  0  0  0  0
   16.8138   54.4428   13.3338 C   0  0  0  0  0  0  0  0  0  0  0  0
   17.8310   55.3598   13.2533 C   0  0  0  0  0  0  0  0  0  0  0  0
   19.0968   54.9504   13.4782 F   0  0  0  0  0  0  0  0  0  0  0  0
   17.5425   56.6796   12.9587 C   0  0  0  0  0  0  0  0  0  0  0  0
   16.2533   57.1127   12.7408 C   0  0  0  0  0  0  0  0  0  0  0  0
   15.2223   56.2149   12.8166 C   0  0  0  0  0  0  0  0  0  0  0  0
   15.5195   54.9144   13.1079 C   0  0  0  0  0  0  0  0  0  0  0  0
   14.4445   54.0595   13.1708 F   0  0  0  0  0  0  0  0  0  0  0  0
   15.0090   49.5148   18.2091 N   0  0  0  0  0  0  0  0  0  0  0  0
   13.5871   49.5391   18.4227 C   0  0  0  0  0  0  0  0  0  0  0  0
  1  2  1  0
  2  3  1  0
  2  4  1  0
  4  5  2  0
  5  6  1  0
  6  7  2  0
  7  8  1  0
  8  9  1  0
  9 10  1  0
 10 11  2  0
 10 12  1  0
 12 13  1  0
 12 14  1  0
 14 15  2  0
 15 16  1  0
 15 17  1  0
 17 18  2  0
 18 19  1  0
 19 20  2  0
 20 21  1  0
  7 22  1  0
 22 23  1  0
 22  4  1  0
 20 14  1  0
M  END
$$$$
