
     RDKit          3D

 13 15  0  0  0  0  0  0  0  0999 V2000
   17.2919   54.6670   13.0695 C   0  0  0  0  0  0  0  0  0  0  0  0
   16.2244   54.5366   12.2131 C   0  0  0  0  0  0  0  0  0  0  0  0
   15.4356   55.6390   11.9944 C   0  0  0  0  0  0  0  0  0  0  0  0
   15.7203   56.8524   12.6299 C   0  0  0  0  0  0  0  0  0  0  0  0
   16.7881   56.9897   13.4889 C   0  0  0  0  0  0  0  0  0  0  0  0
   17.5768   55.8585   13.6976 C   0  0  0  0  0  0  0  0  0  0  0  0
   16.8529   58.2492   13.9732 N   0  0  0  0  0  0  0  0  0  0  0  0
   15.8107   58.9292   13.4160 C   0  0  0  0  0  0  0  0  0  0  0  0
   15.4038   60.2408   13.5598 C   0  0  0  0  0  0  0  0  0  0  0  0
   14.2938   60.6424   12.8549 C   0  0  0  0  0  0  0  0  0  0  0  0
   13.6183   59.7745   12.0417 C   0  0  0  0  0  0  0  0  0  0  0  0
   14.0058   58.4958   11.8944 N   0  0  0  0  0  0  0  0  0  0  0  0
   15.1015   58.0896   12.5870 C   0  0  0  0  0  0  0  0  0  0  0  0
  1  2  2  0
  2  3  1  0
  3  4  2  0
  4  5  1  0
  5  6  2  0
  5  7  1  0
  7  8  1  0
  8  9  2  0
  9 10  1  0
 10 11  2  0
 11 12  1  0
 12 13  2  0
  6  1  1  0
 13  8  1  0
 13  4  1  0
M  END
$$$$
