
     RDKit          3D

 26 29  0  0  0  0  0  0  0  0999 V2000
   29.2340   80.7322   52.1641 C   0  0  0  0  0  0  0  0  0  0  0  0
   30.4783   81.5281   52.0291 C   0  0  0  0  0  0  0  0  0  0  0  0
   30.8201   82.3869   53.0611 C   0  0  0  0  0  0  0  0  0  0  0  0
   31.9593   83.1360   52.9638 C   0  0  0  0  0  0  0  0  0  0  0  0
   32.7605   83.0223   51.8234 C   0  0  0  0  0  0  0  0  0  0  0  0
   33.9912   83.8272   51.7150 C   0  0  0  0  0  0  0  0  0  0  0  0
   32.4335   82.1765   50.7956 C   0  0  0  0  0  0  0  0  0  0  0  0
   33.2620   82.0709   49.6231 C   0  0  0  0  0  0  0  0  0  0  0  0
   32.8795   82.0972   48.3131 N   0  0  0  0  0  0  0  0  0  0  0  0
   33.9705   81.9575   47.5495 C   0  0  0  0  0  0  0  0  0  0  0  0
   34.0312   81.9233   46.0765 C   0  0  0  0  0  0  0  0  0  0  0  0
   35.2182   82.1285   45.4172 C   0  0  0  0  0  0  0  0  0  0  0  0
   35.2484   82.0925   44.0730 N   0  0  0  0  0  0  0  0  0  0  0  0
   34.1482   81.8603   43.3391 C   0  0  0  0  0  0  0  0  0  0  0  0
   32.9624   81.6546   43.9801 C   0  0  0  0  0  0  0  0  0  0  0  0
   32.8900   81.6834   45.3554 C   0  0  0  0  0  0  0  0  0  0  0  0
   31.5700   81.4506   46.0445 C   0  0  0  0  0  0  0  0  0  0  0  0
   35.0191   81.8462   48.3816 N   0  0  0  0  0  0  0  0  0  0  0  0
   34.6138   81.9123   49.6586 C   0  0  0  0  0  0  0  0  0  0  0  0
   35.5147   81.8263   50.7976 C   0  0  0  0  0  0  0  0  0  0  0  0
   36.8733   81.8237   50.6872 C   0  0  0  0  0  0  0  0  0  0  0  0
   37.6672   81.7409   51.8121 C   0  0  0  0  0  0  0  0  0  0  0  0
   37.1140   81.6611   53.0470 N   0  0  0  0  0  0  0  0  0  0  0  0
   35.7840   81.6606   53.1998 C   0  0  0  0  0  0  0  0  0  0  0  0
   34.9938   81.7428   52.0772 C   0  0  0  0  0  0  0  0  0  0  0  0
   31.2895   81.4212   50.8886 C   0  0  0  0  0  0  0  0  0  0  0  0
  1  2  1  0
  2  3  2  0
  3  4  1  0
  4  5  2  0
  5  6  1  0
  5  7  1  0
  7  8  1  0
  8  9  1  0
  9 10  1  0
 10 11  1  0
 11 12  2  0
 12 13  1  0
 13 14  2  0
 14 15  1  0
 15 16  2  0
 16 17  1  0
 10 18  2  0
 18 19  1  0
 19 20  1  0
 20 21  2  0
 21 22  1  0
 22 23  2  0
 23 24  1  0
 24 25  2  0
  7 26  2  0
 26  2  1  0
 19  8  2  0
 25 20  1  0
 16 11  1  0
M  END
$$$$
