
     RDKit          3D

 25 27  0  0  0  0  0  0  0  0999 V2000
   42.1701   79.9922   51.6317 C   0  0  0  0  0  0  0  0  0  0  0  0
   41.1078   79.1115   51.9460 O   0  0  0  0  0  0  0  0  0  0  0  0
   39.8647   79.6161   52.2802 C   0  0  0  0  0  0  0  0  0  0  0  0
   39.3700   80.7189   51.6299 C   0  0  0  0  0  0  0  0  0  0  0  0
   38.1082   81.2114   51.9863 C   0  0  0  0  0  0  0  0  0  0  0  0
   37.6121   82.3916   51.2711 C   0  0  0  0  0  0  0  0  0  0  0  0
   36.7271   83.1631   52.0882 N   0  0  0  0  0  0  0  0  0  0  0  0
   35.3647   82.7334   52.0128 C   0  0  0  0  0  0  0  0  0  0  0  0
   34.4476   83.7826   51.4423 C   0  0  0  0  0  0  0  0  0  0  0  0
   33.0570   83.3855   51.5308 N   0  0  0  0  0  0  0  0  0  0  0  0
   32.2451   83.5329   52.5680 N   0  0  0  0  0  0  0  0  0  0  0  0
   31.0281   83.0423   52.2816 C   0  0  0  0  0  0  0  0  0  0  0  0
   31.1165   82.5660   50.9776 C   0  0  0  0  0  0  0  0  0  0  0  0
   30.1549   81.9615   50.1900 C   0  0  0  0  0  0  0  0  0  0  0  0
   30.5239   81.5841   48.9147 C   0  0  0  0  0  0  0  0  0  0  0  0
   31.8017   81.8009   48.4431 C   0  0  0  0  0  0  0  0  0  0  0  0
   32.7511   82.4046   49.2385 C   0  0  0  0  0  0  0  0  0  0  0  0
   32.3988   82.7878   50.5156 C   0  0  0  0  0  0  0  0  0  0  0  0
   37.3658   80.5899   52.9872 C   0  0  0  0  0  0  0  0  0  0  0  0
   37.8680   79.4848   53.6347 C   0  0  0  0  0  0  0  0  0  0  0  0
   37.1733   78.8332   54.6320 O   0  0  0  0  0  0  0  0  0  0  0  0
   35.8973   79.1485   55.1016 C   0  0  0  0  0  0  0  0  0  0  0  0
   39.1080   79.0152   53.2721 C   0  0  0  0  0  0  0  0  0  0  0  0
   39.6491   77.9127   53.8933 O   0  0  0  0  0  0  0  0  0  0  0  0
   40.5146   77.9354   54.9869 C   0  0  0  0  0  0  0  0  0  0  0  0
  1  2  1  0
  2  3  1  0
  3  4  2  0
  4  5  1  0
  5  6  1  0
  6  7  1  0
  7  8  1  0
  8  9  1  0
  9 10  1  0
 10 11  1  0
 11 12  2  0
 12 13  1  0
 13 14  2  0
 14 15  1  0
 15 16  2  0
 16 17  1  0
 17 18  2  0
  5 19  2  0
 19 20  1  0
 20 21  1  0
 21 22  1  0
 20 23  2  0
 23 24  1  0
 24 25  1  0
 23  3  1  0
 18 10  1  0
 18 13  1  0
M  END
$$$$
