
     RDKit          3D

 24 27  0  0  0  0  0  0  0  0999 V2000
   -2.3595   67.0101   32.0564 O   0  0  0  0  0  0  0  0  0  0  0  0
   -3.4943   66.9485   31.4552 C   0  0  0  0  0  0  0  0  0  0  0  0
   -3.9517   65.6775   31.0783 N   0  0  0  0  0  0  0  0  0  0  0  0
   -3.3795   64.4288   31.5746 C   0  0  0  0  0  0  0  0  0  0  0  0
   -4.4653   63.5039   32.0049 C   0  0  0  0  0  0  0  0  0  0  0  0
   -4.3199   62.1769   31.3802 N   0  0  0  0  0  0  0  0  0  0  0  0
   -5.3270   61.3542   31.0006 C   0  0  0  0  0  0  0  0  0  0  0  0
   -4.7728   60.2027   30.4555 C   0  0  0  0  0  0  0  0  0  0  0  0
   -3.4056   60.3732   30.5260 C   0  0  0  0  0  0  0  0  0  0  0  0
   -2.4352   59.3741   30.0495 C   0  0  0  0  0  0  0  0  0  0  0  0
   -1.8753   58.5414   31.2100 C   0  0  0  0  0  0  0  0  0  0  0  0
   -0.7634   57.8008   30.4550 C   0  0  0  0  0  0  0  0  0  0  0  0
   -0.1873   58.8678   29.5544 C   0  0  0  0  0  0  0  0  0  0  0  0
   -1.1856   59.9972   29.5143 C   0  0  0  0  0  0  0  0  0  0  0  0
   -3.1928   61.5543   31.0795 N   0  0  0  0  0  0  0  0  0  0  0  0
   -4.2162   68.1090   31.2018 N   0  0  0  0  0  0  0  0  0  0  0  0
   -5.6535   68.1005   30.9575 C   0  0  0  0  0  0  0  0  0  0  0  0
   -5.8061   68.6706   29.5458 C   0  0  0  0  0  0  0  0  0  0  0  0
   -5.3458   69.9802   29.5767 O   0  0  0  0  0  0  0  0  0  0  0  0
   -3.9669   70.0656   29.7910 C   0  0  0  0  0  0  0  0  0  0  0  0
   -3.6361   69.4462   31.1333 C   0  0  0  0  0  0  0  0  0  0  0  0
   -2.2116   69.5545   31.5012 C   0  0  0  0  0  0  0  0  0  0  0  0
   -1.8846   69.5757   32.9750 C   0  0  0  0  0  0  0  0  0  0  0  0
   -1.5598   70.7342   32.0792 C   0  0  0  0  0  0  0  0  0  0  0  0
  1  2  2  0
  2  3  1  0
  3  4  1  0
  4  5  1  0
  5  6  1  0
  6  7  1  0
  7  8  2  0
  8  9  1  0
  9 10  1  0
 10 11  1  0
 11 12  1  0
 12 13  1  0
 13 14  1  0
  9 15  2  0
  2 16  1  0
 16 17  1  0
 17 18  1  0
 18 19  1  0
 19 20  1  0
 20 21  1  0
 21 22  1  0
 22 23  1  0
 23 24  1  0
 15  6  1  0
 21 16  1  0
 24 22  1  0
 14 10  1  0
M  END
$$$$
