
     RDKit          3D

 31 34  0  0  0  0  0  0  0  0999 V2000
   17.4339  102.2074   52.0066 N   0  0  0  0  0  0  0  0  0  0  0  0
   16.5481  101.4900   51.4391 C   0  0  0  0  0  0  0  0  0  0  0  0
   16.5505  101.2819   50.0278 N   0  0  0  0  0  0  0  0  0  0  0  0
   15.4722  100.8350   52.2066 C   0  0  0  0  0  0  0  0  0  0  0  0
   15.5174  100.7152   53.5782 C   0  0  0  0  0  0  0  0  0  0  0  0
   14.4923  100.0965   54.2569 C   0  0  0  0  0  0  0  0  0  0  0  0
   13.3924   99.5796   53.5856 C   0  0  0  0  0  0  0  0  0  0  0  0
   12.3325   98.9384   54.3873 C   0  0  0  0  0  0  0  0  0  0  0  0
   12.6873   98.9835   55.7824 N   0  0  0  0  0  0  0  0  0  0  0  0
   12.3014   99.9905   56.6907 C   0  0  0  0  0  0  0  0  0  0  0  0
   12.9962  101.0140   56.8182 O   0  0  0  0  0  0  0  0  0  0  0  0
   11.0404   99.7789   57.4822 C   0  0  2  0  0  0  0  0  0  0  0  0
   10.8631  100.9574   58.3719 C   0  0  0  0  0  0  0  0  0  0  0  0
   10.3063  100.6045   59.6413 O   0  0  0  0  0  0  0  0  0  0  0  0
   10.8862   99.5623   60.3344 C   0  0  0  0  0  0  0  0  0  0  0  0
   11.0719   99.5428   61.6993 C   0  0  0  0  0  0  0  0  0  0  0  0
   11.6551   98.4856   62.3591 C   0  0  0  0  0  0  0  0  0  0  0  0
   12.0761   97.3978   61.6563 C   0  0  0  0  0  0  0  0  0  0  0  0
   12.6592   96.2909   62.1498 O   0  0  0  0  0  0  0  0  0  0  0  0
   12.7321   95.5746   63.2868 C   0  0  0  0  0  0  0  0  0  0  0  0
   13.6126   94.3918   63.2173 C   0  0  0  0  0  0  0  0  0  0  0  0
   14.8658   94.4319   62.6706 C   0  0  0  0  0  0  0  0  0  0  0  0
   15.6313   93.2990   62.6526 C   0  0  0  0  0  0  0  0  0  0  0  0
   15.1361   92.1295   63.1833 C   0  0  0  0  0  0  0  0  0  0  0  0
   13.8713   92.0729   63.7392 C   0  0  0  0  0  0  0  0  0  0  0  0
   13.1107   93.2024   63.7561 C   0  0  0  0  0  0  0  0  0  0  0  0
   11.8878   97.4154   60.2636 C   0  0  0  0  0  0  0  0  0  0  0  0
   11.3066   98.4698   59.6094 C   0  0  0  0  0  0  0  0  0  0  0  0
   11.1130   98.4512   58.1323 C   0  0  0  0  0  0  0  0  0  0  0  0
   13.3819   99.7169   52.2286 C   0  0  0  0  0  0  0  0  0  0  0  0
   14.3952  100.3258   51.5815 N   0  0  0  0  0  0  0  0  0  0  0  0
  1  2  2  0
  2  3  1  0
  2  4  1  0
  4  5  2  0
  5  6  1  0
  6  7  2  0
  7  8  1  0
  8  9  1  0
  9 10  1  0
 10 11  2  0
 12 10  1  1
 12 13  1  0
 13 14  1  0
 14 15  1  0
 15 16  2  0
 16 17  1  0
 17 18  2  0
 18 19  1  0
 19 20  1  0
 20 21  1  0
 21 22  2  0
 22 23  1  0
 23 24  2  0
 24 25  1  0
 25 26  2  0
 18 27  1  0
 27 28  2  0
 28 29  1  0
  7 30  1  0
 30 31  2  0
 31  4  1  0
 29 12  1  0
 28 15  1  0
 26 21  1  0
M  END
$$$$
