
     RDKit          3D

 22 25  0  0  0  0  0  0  0  0999 V2000
   30.4221   83.1324   53.0138 C   0  0  0  0  0  0  0  0  0  0  0  0
   30.8535   81.7690   52.5414 C   0  0  0  0  0  0  0  0  0  0  0  0
   31.9168   81.8411   51.5617 N   0  0  0  0  0  0  0  0  0  0  0  0
   31.7629   81.8740   50.2414 C   0  0  0  0  0  0  0  0  0  0  0  0
   30.6683   81.8546   49.3967 C   0  0  0  0  0  0  0  0  0  0  0  0
   30.8105   81.9014   48.0154 C   0  0  0  0  0  0  0  0  0  0  0  0
   32.0640   81.9692   47.4455 C   0  0  0  0  0  0  0  0  0  0  0  0
   33.1525   81.9881   48.3020 C   0  0  0  0  0  0  0  0  0  0  0  0
   33.0184   81.9419   49.6741 C   0  0  0  0  0  0  0  0  0  0  0  0
   33.9208   81.9474   50.7201 C   0  0  0  0  0  0  0  0  0  0  0  0
   35.2966   82.0011   50.7966 C   0  0  0  0  0  0  0  0  0  0  0  0
   35.9968   81.9944   51.9811 C   0  0  0  0  0  0  0  0  0  0  0  0
   37.4172   82.0577   51.9343 N   0  0  0  0  0  0  0  0  0  0  0  0
   38.0267   82.0793   50.6049 C   0  0  0  0  0  0  0  0  0  0  0  0
   39.3828   82.7269   50.7677 C   0  0  0  0  0  0  0  0  0  0  0  0
   40.1902   82.1009   51.7420 N   0  0  0  0  0  0  0  0  0  0  0  0
   41.0952   81.1111   51.2778 C   0  0  0  0  0  0  0  0  0  0  0  0
   39.6283   81.9074   53.0191 C   0  0  0  0  0  0  0  0  0  0  0  0
   38.1616   82.0911   53.1445 C   0  0  0  0  0  0  0  0  0  0  0  0
   35.2903   81.9307   53.1602 C   0  0  0  0  0  0  0  0  0  0  0  0
   33.9150   81.8766   53.1003 C   0  0  0  0  0  0  0  0  0  0  0  0
   33.2243   81.8838   51.9114 C   0  0  0  0  0  0  0  0  0  0  0  0
  1  2  1  0
  2  3  1  0
  3  4  1  0
  4  5  2  0
  5  6  1  0
  6  7  2  0
  7  8  1  0
  8  9  2  0
  9 10  1  0
 10 11  2  0
 11 12  1  0
 12 13  1  0
 13 14  1  0
 14 15  1  0
 15 16  1  0
 16 17  1  0
 16 18  1  0
 18 19  1  0
 12 20  2  0
 20 21  1  0
 21 22  2  0
 22  3  1  0
  9  4  1  0
 22 10  1  0
 19 13  1  0
M  END
$$$$
