
     RDKit          3D

 21 23  0  0  0  0  0  0  0  0999 V2000
   14.5215   56.8668   13.3665 C   0  0  0  0  0  0  0  0  0  0  0  0
   15.2378   55.6112   13.2747 N   0  0  0  0  0  0  0  0  0  0  0  0
   15.1510   54.6008   14.2776 C   0  0  0  0  0  0  0  0  0  0  0  0
   14.4705   54.6378   15.3507 O   0  0  0  0  0  0  0  0  0  0  0  0
   16.0098   53.5224   13.8036 C   0  0  0  0  0  0  0  0  0  0  0  0
   16.2213   52.3725   14.4408 C   0  0  0  0  0  0  0  0  0  0  0  0
   15.9389   52.2518   15.8199 N   0  0  0  0  0  0  0  0  0  0  0  0
   16.1350   51.0063   16.4552 C   0  0  0  0  0  0  0  0  0  0  0  0
   17.3967   50.5217   16.6639 C   0  0  0  0  0  0  0  0  0  0  0  0
   17.5990   49.3110   17.2810 C   0  0  0  0  0  0  0  0  0  0  0  0
   16.5162   48.5750   17.6954 C   0  0  0  0  0  0  0  0  0  0  0  0
   15.2152   49.0183   17.5093 C   0  0  0  0  0  0  0  0  0  0  0  0
   14.0754   48.2462   17.9438 C   0  0  0  0  0  0  0  0  0  0  0  0
   13.1392   47.6349   18.2892 N   0  0  0  0  0  0  0  0  0  0  0  0
   15.0536   50.2421   16.8841 C   0  0  0  0  0  0  0  0  0  0  0  0
   16.5892   53.9056   12.5361 C   0  0  0  0  0  0  0  0  0  0  0  0
   17.4667   53.2855   11.6411 C   0  0  0  0  0  0  0  0  0  0  0  0
   17.8664   53.8939   10.4735 C   0  0  0  0  0  0  0  0  0  0  0  0
   17.3841   55.1516   10.1833 C   0  0  0  0  0  0  0  0  0  0  0  0
   16.5145   55.7689   11.0679 C   0  0  0  0  0  0  0  0  0  0  0  0
   16.1099   55.1643   12.2403 C   0  0  0  0  0  0  0  0  0  0  0  0
  1  2  1  0
  2  3  1  0
  3  4  2  0
  3  5  1  0
  5  6  2  3
  6  7  1  0
  7  8  1  0
  8  9  2  0
  9 10  1  0
 10 11  2  0
 11 12  1  0
 12 13  1  0
 13 14  3  0
 12 15  2  0
  5 16  1  0
 16 17  2  0
 17 18  1  0
 18 19  2  0
 19 20  1  0
 20 21  2  0
 21  2  1  0
 15  8  1  0
 21 16  1  0
M  END
$$$$
