
     RDKit          3D

 23 25  0  0  0  0  0  0  0  0999 V2000
   16.0317   46.4764   18.7846 C   0  0  0  0  0  0  0  0  0  0  0  0
   15.4040   47.0594   17.8063 C   0  0  0  0  0  0  0  0  0  0  0  0
   14.9989   48.4039   17.6692 C   0  0  0  0  0  0  0  0  0  0  0  0
   14.1679   48.8365   18.5754 O   0  0  0  0  0  0  0  0  0  0  0  0
   15.3492   49.3466   16.7120 N   0  0  0  0  0  0  0  0  0  0  0  0
   16.6175   49.3901   16.0219 C   0  0  0  0  0  0  0  0  0  0  0  0
   16.6214   50.7205   15.2142 C   0  0  0  0  0  0  0  0  0  0  0  0
   16.3310   51.7904   16.2417 C   0  0  0  0  0  0  0  0  0  0  0  0
   16.9331   53.1010   15.9493 C   0  0  0  0  0  0  0  0  0  0  0  0
   16.8684   53.6048   14.5827 C   0  0  0  0  0  0  0  0  0  0  0  0
   17.4423   52.9584   13.5498 N   0  0  0  0  0  0  0  0  0  0  0  0
   17.2510   53.6474   12.3938 C   0  0  0  0  0  0  0  0  0  0  0  0
   17.6394   53.4035   11.0824 C   0  0  0  0  0  0  0  0  0  0  0  0
   17.2863   54.3112   10.1071 C   0  0  0  0  0  0  0  0  0  0  0  0
   16.5618   55.4296   10.4571 C   0  0  0  0  0  0  0  0  0  0  0  0
   16.1855   55.6571   11.7556 C   0  0  0  0  0  0  0  0  0  0  0  0
   15.4729   56.7521   12.1306 F   0  0  0  0  0  0  0  0  0  0  0  0
   16.5225   54.7638   12.7708 C   0  0  0  0  0  0  0  0  0  0  0  0
   16.2953   54.7282   14.1078 N   0  0  0  0  0  0  0  0  0  0  0  0
   15.5811   55.7453   14.8312 C   0  0  0  0  0  0  0  0  0  0  0  0
   14.0598   55.5463   14.6816 C   0  0  0  0  0  0  0  0  0  0  0  0
   14.8432   51.7629   16.4549 C   0  0  0  0  0  0  0  0  0  0  0  0
   14.3320   50.3621   16.3798 C   0  0  0  0  0  0  0  0  0  0  0  0
  1  2  2  0
  2  3  1  0
  3  4  2  0
  3  5  1  0
  5  6  1  0
  6  7  1  0
  7  8  1  0
  8  9  1  0
  9 10  1  0
 10 11  2  0
 11 12  1  0
 12 13  2  0
 13 14  1  0
 14 15  2  0
 15 16  1  0
 16 17  1  0
 16 18  2  0
 18 19  1  0
 19 20  1  0
 20 21  1  0
  8 22  1  0
 22 23  1  0
 23  5  1  0
 19 10  1  0
 18 12  1  0
M  END
$$$$
