
     RDKit          3D

 33 36  0  0  0  0  0  0  0  0999 V2000
   11.8732   57.7878   11.5104 N   0  0  0  0  0  0  0  0  0  0  0  0
   12.2732   59.1478   11.7166 C   0  0  0  0  0  0  0  0  0  0  0  0
   11.6550   60.1232   11.0035 N   0  0  0  0  0  0  0  0  0  0  0  0
   11.9940   61.4213   11.1598 C   0  0  0  0  0  0  0  0  0  0  0  0
   12.9862   61.7094   12.0671 C   0  0  0  0  0  0  0  0  0  0  0  0
   13.4528   63.1173   12.3314 C   0  0  0  0  0  0  0  0  0  0  0  0
   13.5225   63.4285   13.7737 C   0  0  0  0  0  0  0  0  0  0  0  0
   12.4669   64.4655   13.9868 C   0  0  0  0  0  0  0  0  0  0  0  0
   12.1930   65.0147   12.7673 O   0  0  0  0  0  0  0  0  0  0  0  0
   12.3550   64.0127   11.8206 C   0  0  0  0  0  0  0  0  0  0  0  0
   13.5920   60.7365   12.7680 N   0  0  0  0  0  0  0  0  0  0  0  0
   13.2683   59.4362   12.6265 C   0  0  0  0  0  0  0  0  0  0  0  0
   13.9041   58.3544   13.3701 C   0  0  0  0  0  0  0  0  0  0  0  0
   14.4241   58.4880   14.6177 C   0  0  0  0  0  0  0  0  0  0  0  0
   14.9996   57.4020   15.2235 C   0  0  0  0  0  0  0  0  0  0  0  0
   15.0919   56.1313   14.6321 C   0  0  0  0  0  0  0  0  0  0  0  0
   15.7293   55.0605   15.3658 C   0  0  0  0  0  0  0  0  0  0  0  0
   15.5255   54.9728   16.6191 O   0  0  0  0  0  0  0  0  0  0  0  0
   16.5686   54.0922   14.8071 N   0  0  0  0  0  0  0  0  0  0  0  0
   17.0326   52.9563   15.6060 C   0  0  2  0  0  0  0  0  0  0  0  0
   18.4952   52.7715   15.3167 C   0  0  0  0  0  0  0  0  0  0  0  0
   18.7562   52.9850   13.9690 O   0  0  0  0  0  0  0  0  0  0  0  0
   16.2416   51.7399   15.2393 C   0  0  0  0  0  0  0  0  0  0  0  0
   15.8118   51.5561   13.9513 C   0  0  0  0  0  0  0  0  0  0  0  0
   15.0854   50.4344   13.6254 C   0  0  0  0  0  0  0  0  0  0  0  0
   14.6588   50.2555   12.3388 F   0  0  0  0  0  0  0  0  0  0  0  0
   14.8031   49.5129   14.6073 C   0  0  0  0  0  0  0  0  0  0  0  0
   15.2240   49.6733   15.9133 C   0  0  0  0  0  0  0  0  0  0  0  0
   14.7568   48.2246   17.3638 I   0  0  0  0  0  0  0  0  0  0  0  0
   15.9541   50.8139   16.2110 C   0  0  0  0  0  0  0  0  0  0  0  0
   14.5561   56.0352   13.3731 C   0  0  0  0  0  0  0  0  0  0  0  0
   14.5887   54.8481   12.7157 F   0  0  0  0  0  0  0  0  0  0  0  0
   13.9677   57.1310   12.7442 C   0  0  0  0  0  0  0  0  0  0  0  0
  1  2  1  0
  2  3  2  0
  3  4  1  0
  4  5  2  0
  5  6  1  0
  6  7  1  0
  7  8  1  0
  8  9  1  0
  9 10  1  0
  5 11  1  0
 11 12  2  0
 12 13  1  0
 13 14  2  0
 14 15  1  0
 15 16  2  0
 16 17  1  0
 17 18  2  0
 17 19  1  0
 19 20  1  0
 20 21  1  6
 21 22  1  0
 20 23  1  0
 23 24  2  0
 24 25  1  0
 25 26  1  0
 25 27  2  0
 27 28  1  0
 28 29  1  0
 28 30  2  0
 16 31  1  0
 31 32  1  0
 31 33  2  0
 12  2  1  0
 33 13  1  0
 10  6  1  0
 30 23  1  0
M  END
$$$$
