
     RDKit          3D

 30 33  0  0  0  0  0  0  0  0999 V2000
   23.6768   49.2636   13.9358 C   0  0  0  0  0  0  0  0  0  0  0  0
   23.2063   50.6597   14.2529 C   0  0  0  0  0  0  0  0  0  0  0  0
   21.6983   50.8058   14.0924 C   0  0  0  0  0  0  0  0  0  0  0  0
   21.2651   52.1735   14.4650 C   0  0  0  0  0  0  0  0  0  0  0  0
   20.7862   52.3850   15.8469 C   0  0  0  0  0  0  0  0  0  0  0  0
   21.7826   51.8460   16.8545 C   0  0  0  0  0  0  0  0  0  0  0  0
   21.1479   51.2361   18.0556 C   0  0  0  0  0  0  0  0  0  0  0  0
   20.8812   49.4722   17.6970 S   0  0  0  0  0  0  0  0  0  0  0  0
   20.4286   48.5415   19.1699 C   0  0  0  0  0  0  0  0  0  0  0  0
   19.4885   51.8942   16.1844 N   0  0  0  0  0  0  0  0  0  0  0  0
   18.2581   52.2690   15.6368 C   0  0  0  0  0  0  0  0  0  0  0  0
   18.1735   53.2155   14.6897 N   0  0  0  0  0  0  0  0  0  0  0  0
   17.0214   53.6376   14.1434 C   0  0  0  0  0  0  0  0  0  0  0  0
   17.0068   54.6066   13.1818 N   0  0  0  0  0  0  0  0  0  0  0  0
   15.8618   55.0374   12.6275 C   0  0  0  0  0  0  0  0  0  0  0  0
   14.6860   54.4704   13.0586 C   0  0  0  0  0  0  0  0  0  0  0  0
   14.6590   53.4740   14.0428 C   0  0  0  0  0  0  0  0  0  0  0  0
   15.8521   53.0584   14.5873 C   0  0  0  0  0  0  0  0  0  0  0  0
   15.8953   52.1065   15.5351 N   0  0  0  0  0  0  0  0  0  0  0  0
   14.9635   51.3715   16.1597 C   0  0  0  0  0  0  0  0  0  0  0  0
   13.7404   51.4118   15.9838 O   0  0  0  0  0  0  0  0  0  0  0  0
   15.5425   50.5297   17.0580 N   0  0  0  0  0  0  0  0  0  0  0  0
   14.8608   49.6060   17.8970 C   0  0  0  0  0  0  0  0  0  0  0  0
   13.5135   49.7288   18.1590 C   0  0  0  0  0  0  0  0  0  0  0  0
   12.8393   48.8340   18.9761 C   0  0  0  0  0  0  0  0  0  0  0  0
   13.5512   47.7932   19.5377 C   0  0  0  0  0  0  0  0  0  0  0  0
   14.9010   47.6416   19.2956 C   0  0  0  0  0  0  0  0  0  0  0  0
   15.5209   48.5532   18.4805 C   0  0  0  0  0  0  0  0  0  0  0  0
   16.8586   50.7502   16.9859 N   0  0  0  0  0  0  0  0  0  0  0  0
   17.0787   51.7008   16.0687 C   0  0  0  0  0  0  0  0  0  0  0  0
  1  2  1  0
  2  3  1  0
  3  4  1  0
  4  5  1  0
  5  6  1  0
  6  7  1  0
  7  8  1  0
  8  9  1  0
  5 10  1  0
 10 11  1  0
 11 12  2  0
 12 13  1  0
 13 14  2  0
 14 15  1  0
 15 16  2  0
 16 17  1  0
 17 18  2  0
 18 19  1  0
 19 20  1  0
 20 21  2  0
 20 22  1  0
 22 23  1  0
 23 24  2  0
 24 25  1  0
 25 26  2  0
 26 27  1  0
 27 28  2  0
 22 29  1  0
 29 30  2  0
 30 11  1  0
 18 13  1  0
 30 19  1  0
 28 23  1  0
M  END
$$$$
