
     RDKit          3D

 43 47  0  0  0  0  0  0  0  0999 V2000
    6.5805   97.3464   59.8506 C   0  0  0  0  0  0  0  0  0  0  0  0
    6.7115   95.9007   60.2052 C   0  0  1  0  0  0  0  0  0  0  0  0
    8.1550   95.4156   60.2009 C   0  0  0  0  0  0  0  0  0  0  0  0
    8.8323   96.3113   61.1387 N   0  0  0  0  0  0  0  0  0  0  0  0
    9.6914   97.2945   60.6036 C   0  0  0  0  0  0  0  0  0  0  0  0
    9.2419   98.4626   60.1676 C   0  0  0  0  0  0  0  0  0  0  0  0
    9.8530   99.4936   59.5308 C   0  0  0  0  0  0  0  0  0  0  0  0
    9.2745  100.6211   59.1296 F   0  0  0  0  0  0  0  0  0  0  0  0
   11.2629   99.2413   59.2855 C   0  0  0  0  0  0  0  0  0  0  0  0
   12.0600  100.2417   58.5494 C   0  0  0  0  0  0  0  0  0  0  0  0
   11.5710  101.0244   57.6224 C   0  0  0  0  0  0  0  0  0  0  0  0
   12.4728  102.0113   56.8968 C   0  0  0  0  0  0  0  0  0  0  0  0
   13.6113  101.1800   56.5695 N   0  0  0  0  0  0  0  0  0  0  0  0
   13.9321  100.8150   55.2183 C   0  0  0  0  0  0  0  0  0  0  0  0
   15.0604  100.1493   54.9817 N   0  0  0  0  0  0  0  0  0  0  0  0
   15.3954   99.8184   53.7207 C   0  0  0  0  0  0  0  0  0  0  0  0
   14.6110  100.1490   52.6833 C   0  0  0  0  0  0  0  0  0  0  0  0
   14.9422   99.8640   51.2652 C   0  0  0  0  0  0  0  0  0  0  0  0
   15.1831   99.6410   50.1844 N   0  0  0  0  0  0  0  0  0  0  0  0
   13.4010  100.8508   52.9338 C   0  0  0  0  0  0  0  0  0  0  0  0
   13.1044  101.1657   54.2373 N   0  0  0  0  0  0  0  0  0  0  0  0
   14.4005  100.6160   57.6673 C   0  0  0  0  0  0  0  0  0  0  0  0
   13.5322  100.2578   58.8394 C   0  0  0  0  0  0  0  0  0  0  0  0
   11.7799   98.1017   59.6987 C   0  0  0  0  0  0  0  0  0  0  0  0
   11.0653   97.0786   60.3698 C   0  0  0  0  0  0  0  0  0  0  0  0
   11.7923   96.0279   60.8834 N   0  0  0  0  0  0  0  0  0  0  0  0
   13.1577   95.7083   60.9172 C   0  0  0  0  0  0  0  0  0  0  0  0
   13.9446   96.3592   60.1911 O   0  0  0  0  0  0  0  0  0  0  0  0
   13.6491   94.6537   61.8097 C   0  0  0  0  0  0  0  0  0  0  0  0
   12.7572   93.5047   61.8843 C   0  0  0  0  0  0  0  0  0  0  0  0
   13.0772   92.4577   62.6409 N   0  0  0  0  0  0  0  0  0  0  0  0
   14.2599   92.3810   63.3921 C   0  0  0  0  0  0  0  0  0  0  0  0
   14.4772   91.3853   64.0520 O   0  0  0  0  0  0  0  0  0  0  0  0
   15.0264   93.4808   63.2633 C   0  0  0  0  0  0  0  0  0  0  0  0
   14.7918   94.6095   62.5207 C   0  0  0  0  0  0  0  0  0  0  0  0
   15.7035   95.7759   62.4554 C   0  0  0  0  0  0  0  0  0  0  0  0
   16.0013   96.1180   61.1338 F   0  0  0  0  0  0  0  0  0  0  0  0
   16.8874   95.5995   63.1156 F   0  0  0  0  0  0  0  0  0  0  0  0
   15.0201   96.8919   62.9771 F   0  0  0  0  0  0  0  0  0  0  0  0
    8.4479   96.0802   62.4917 C   0  0  0  0  0  0  0  0  0  0  0  0
    7.0610   95.5278   62.5877 C   0  0  0  0  0  0  0  0  0  0  0  0
    6.1910   95.6996   61.5046 N   0  0  0  0  0  0  0  0  0  0  0  0
    5.0335   94.8058   61.5405 C   0  0  0  0  0  0  0  0  0  0  0  0
  2  1  1  1
  2  3  1  0
  3  4  1  0
  4  5  1  0
  5  6  2  0
  6  7  1  0
  7  8  1  0
  7  9  2  0
  9 10  1  0
 10 11  2  0
 11 12  1  0
 12 13  1  0
 13 14  1  0
 14 15  2  0
 15 16  1  0
 16 17  2  0
 17 18  1  0
 18 19  3  0
 17 20  1  0
 20 21  2  0
 13 22  1  0
 22 23  1  0
  9 24  1  0
 24 25  2  0
 25 26  1  0
 26 27  1  0
 27 28  2  0
 27 29  1  0
 29 30  2  0
 30 31  1  0
 31 32  1  0
 32 33  2  0
 32 34  1  0
 34 35  2  0
 35 36  1  0
 36 37  1  0
 36 38  1  0
 36 39  1  0
  4 40  1  0
 40 41  1  0
 41 42  1  0
 42 43  1  0
 42  2  1  0
 25  5  1  0
 35 29  1  0
 23 10  1  0
 21 14  1  0
M  END
$$$$
