
     RDKit          3D

 27 29  0  0  0  0  0  0  0  0999 V2000
   37.4663   80.9623   53.4970 C   0  0  0  0  0  0  0  0  0  0  0  0
   37.6216   81.3618   52.0826 C   0  0  0  0  0  0  0  0  0  0  0  0
   36.5513   81.4944   51.2775 C   0  0  0  0  0  0  0  0  0  0  0  0
   35.1898   81.2685   51.6537 N   0  0  0  0  0  0  0  0  0  0  0  0
   34.0884   82.0407   51.2661 C   0  0  0  0  0  0  0  0  0  0  0  0
   34.2714   82.8195   50.2601 O   0  0  0  0  0  0  0  0  0  0  0  0
   32.7704   82.0951   51.8445 C   0  0  0  0  0  0  0  0  0  0  0  0
   32.6713   81.9039   53.2420 C   0  0  0  0  0  0  0  0  0  0  0  0
   31.4391   81.9454   53.8492 C   0  0  0  0  0  0  0  0  0  0  0  0
   30.2719   82.1683   53.1514 C   0  0  0  0  0  0  0  0  0  0  0  0
   30.3789   82.3532   51.7918 C   0  0  0  0  0  0  0  0  0  0  0  0
   31.6328   82.3144   51.1499 C   0  0  0  0  0  0  0  0  0  0  0  0
   31.6951   82.5207   49.6801 C   0  0  0  0  0  0  0  0  0  0  0  0
   31.1901   81.2579   49.0332 C   0  0  0  0  0  0  0  0  0  0  0  0
   30.6805   83.6311   49.3395 C   0  0  0  0  0  0  0  0  0  0  0  0
   36.8066   81.8874   49.9470 C   0  0  0  0  0  0  0  0  0  0  0  0
   38.0658   82.1308   49.4621 C   0  0  0  0  0  0  0  0  0  0  0  0
   39.1384   81.9830   50.3205 C   0  0  0  0  0  0  0  0  0  0  0  0
   38.9306   81.6010   51.6259 C   0  0  0  0  0  0  0  0  0  0  0  0
   40.0811   81.4452   52.5046 C   0  0  0  0  0  0  0  0  0  0  0  0
   40.7424   80.3839   52.4152 O   0  0  0  0  0  0  0  0  0  0  0  0
   40.4451   82.4368   53.4199 N   0  0  0  0  0  0  0  0  0  0  0  0
   41.3660   82.2650   54.5260 C   0  0  0  0  0  0  0  0  0  0  0  0
   42.4586   83.3303   54.3383 C   0  0  0  0  0  0  0  0  0  0  0  0
   41.8820   84.5845   54.2415 O   0  0  0  0  0  0  0  0  0  0  0  0
   41.1243   84.6748   53.0773 C   0  0  0  0  0  0  0  0  0  0  0  0
   39.8891   83.7874   53.2978 C   0  0  0  0  0  0  0  0  0  0  0  0
  1  2  1  0
  2  3  2  0
  3  4  1  0
  4  5  1  0
  5  6  2  0
  5  7  1  0
  7  8  2  0
  8  9  1  0
  9 10  2  0
 10 11  1  0
 11 12  2  0
 12 13  1  0
 13 14  1  0
 13 15  1  0
  3 16  1  0
 16 17  2  0
 17 18  1  0
 18 19  2  0
 19 20  1  0
 20 21  2  0
 20 22  1  0
 22 23  1  0
 23 24  1  0
 24 25  1  0
 25 26  1  0
 26 27  1  0
 19  2  1  0
 27 22  1  0
 12  7  1  0
M  END
$$$$
