
     RDKit          3D

 24 26  0  0  0  0  0  0  0  0999 V2000
   37.0647   80.3772   49.1116 C   0  0  0  0  0  0  0  0  0  0  0  0
   37.4556   80.9438   50.4568 C   0  0  0  0  0  0  0  0  0  0  0  0
   38.5759   80.6307   51.1161 N   0  0  0  0  0  0  0  0  0  0  0  0
   38.5939   81.3194   52.2564 N   0  0  0  0  0  0  0  0  0  0  0  0
   39.6428   81.2525   53.2351 C   0  0  0  0  0  0  0  0  0  0  0  0
   40.0716   82.3594   53.9099 C   0  0  0  0  0  0  0  0  0  0  0  0
   41.0853   82.1985   54.8359 C   0  0  0  0  0  0  0  0  0  0  0  0
   41.6437   80.9791   55.0735 C   0  0  0  0  0  0  0  0  0  0  0  0
   41.1924   79.8695   54.3762 C   0  0  0  0  0  0  0  0  0  0  0  0
   40.1917   80.0129   53.4586 C   0  0  0  0  0  0  0  0  0  0  0  0
   37.4949   82.0811   52.3493 C   0  0  0  0  0  0  0  0  0  0  0  0
   37.1496   82.9904   53.4684 C   0  0  0  0  0  0  0  0  0  0  0  0
   36.7495   81.8620   51.2147 C   0  0  0  0  0  0  0  0  0  0  0  0
   35.4617   82.4539   50.8062 C   0  0  0  0  0  0  0  0  0  0  0  0
   35.4502   82.9998   49.6408 O   0  0  0  0  0  0  0  0  0  0  0  0
   34.3037   82.4455   51.5934 N   0  0  0  0  0  0  0  0  0  0  0  0
   34.2534   81.6576   52.7963 C   0  0  0  0  0  0  0  0  0  0  0  0
   33.1558   83.1954   51.2246 C   0  0  0  0  0  0  0  0  0  0  0  0
   31.9114   82.4290   51.1373 C   0  0  0  0  0  0  0  0  0  0  0  0
   31.0931   82.4018   52.2499 C   0  0  0  0  0  0  0  0  0  0  0  0
   29.8881   81.7330   52.3062 C   0  0  0  0  0  0  0  0  0  0  0  0
   29.4765   81.0452   51.1712 C   0  0  0  0  0  0  0  0  0  0  0  0
   30.2968   81.0709   50.0522 C   0  0  0  0  0  0  0  0  0  0  0  0
   31.4974   81.7453   50.0161 C   0  0  0  0  0  0  0  0  0  0  0  0
  1  2  1  0
  2  3  2  0
  3  4  1  0
  4  5  1  0
  5  6  2  0
  6  7  1  0
  7  8  2  0
  8  9  1  0
  9 10  2  0
  4 11  1  0
 11 12  1  0
 11 13  2  0
 13 14  1  0
 14 15  2  0
 14 16  1  0
 16 17  1  0
 16 18  1  0
 18 19  1  0
 19 20  2  0
 20 21  1  0
 21 22  2  0
 22 23  1  0
 23 24  2  0
 13  2  1  0
 24 19  1  0
 10  5  1  0
M  END
$$$$
