
     RDKit          3D

 18 19  0  0  0  0  0  0  0  0999 V2000
   14.5721   55.8000   13.8974 C   0  0  0  0  0  0  0  0  0  0  0  0
   15.4874   54.9312   13.1113 C   0  0  0  0  0  0  0  0  0  0  0  0
   16.0717   55.2455   11.9212 N   0  0  0  0  0  0  0  0  0  0  0  0
   16.8078   54.2483   11.5283 O   0  0  0  0  0  0  0  0  0  0  0  0
   16.7571   53.2737   12.3836 C   0  0  0  0  0  0  0  0  0  0  0  0
   17.4413   51.9331   12.3468 C   0  0  0  0  0  0  0  0  0  0  0  0
   15.9268   53.6556   13.4169 C   0  0  0  0  0  0  0  0  0  0  0  0
   15.5431   52.8722   14.6567 C   0  0  0  0  0  0  0  0  0  0  0  0
   16.6055   51.8698   14.8599 C   0  0  0  0  0  0  0  0  0  0  0  0
   16.4661   50.9374   15.9688 C   0  0  0  0  0  0  0  0  0  0  0  0
   15.2207   50.5206   16.3695 N   0  0  0  0  0  0  0  0  0  0  0  0
   15.3305   49.6827   17.3853 C   0  0  0  0  0  0  0  0  0  0  0  0
   14.2478   49.0468   18.0599 N   0  0  0  0  0  0  0  0  0  0  0  0
   14.5120   48.0518   19.0742 C   0  0  0  0  0  0  0  0  0  0  0  0
   12.8758   49.3697   17.7571 C   0  0  0  0  0  0  0  0  0  0  0  0
   16.6227   49.5568   17.6404 N   0  0  0  0  0  0  0  0  0  0  0  0
   17.3235   50.3182   16.7819 N   0  0  0  0  0  0  0  0  0  0  0  0
   18.7516   50.4527   16.7355 C   0  0  0  0  0  0  0  0  0  0  0  0
  1  2  1  0
  2  3  2  0
  3  4  1  0
  4  5  1  0
  5  6  1  0
  5  7  2  0
  7  8  1  0
  8  9  1  0
  9 10  1  0
 10 11  2  0
 11 12  1  0
 12 13  1  0
 13 14  1  0
 13 15  1  0
 12 16  2  0
 16 17  1  0
 17 18  1  0
  7  2  1  0
 17 10  1  0
M  END
$$$$
