
     RDKit          3D

 19 21  0  0  0  0  0  0  0  0999 V2000
   40.0636   80.1266   53.7652 C   0  0  0  0  0  0  0  0  0  0  0  0
   38.8486   80.6514   53.1245 C   0  0  0  0  0  0  0  0  0  0  0  0
   38.6438   81.9999   53.0631 C   0  0  0  0  0  0  0  0  0  0  0  0
   37.4895   82.4929   52.4543 C   0  0  0  0  0  0  0  0  0  0  0  0
   36.5543   81.6373   51.9147 C   0  0  0  0  0  0  0  0  0  0  0  0
   35.3531   82.1665   51.2816 C   0  0  0  0  0  0  0  0  0  0  0  0
   34.3558   81.4303   50.6599 C   0  0  0  0  0  0  0  0  0  0  0  0
   33.4209   82.2755   50.2027 N   0  0  0  0  0  0  0  0  0  0  0  0
   32.2121   81.9316   49.4940 C   0  0  0  0  0  0  0  0  0  0  0  0
   31.0787   81.8443   50.4975 C   0  0  0  0  0  0  0  0  0  0  0  0
   30.2515   80.7436   50.5266 C   0  0  0  0  0  0  0  0  0  0  0  0
   29.0920   81.1413   51.8824 S   0  0  0  0  0  0  0  0  0  0  0  0
   29.9665   82.7997   52.1869 C   0  0  0  0  0  0  0  0  0  0  0  0
   30.7693   82.7610   51.4086 N   0  0  0  0  0  0  0  0  0  0  0  0
   33.8154   83.4919   50.5245 N   0  0  0  0  0  0  0  0  0  0  0  0
   34.9654   83.4525   51.1687 N   0  0  0  0  0  0  0  0  0  0  0  0
   36.7860   80.2923   51.9908 C   0  0  0  0  0  0  0  0  0  0  0  0
   37.9349   79.7712   52.5957 C   0  0  0  0  0  0  0  0  0  0  0  0
   38.1630   78.3109   52.6656 C   0  0  0  0  0  0  0  0  0  0  0  0
  1  2  1  0
  2  3  2  0
  3  4  1  0
  4  5  2  0
  5  6  1  0
  6  7  2  0
  7  8  1  0
  8  9  1  0
  9 10  1  0
 10 11  2  0
 11 12  1  0
 12 13  1  0
 13 14  2  0
  8 15  1  0
 15 16  2  0
  5 17  1  0
 17 18  2  0
 18 19  1  0
 18  2  1  0
 16  6  1  0
 14 10  1  0
M  END
$$$$
