
     RDKit          3D

 30 33  0  0  0  0  0  0  0  0999 V2000
   18.9778   52.2117   12.8595 C   0  0  0  0  0  0  0  0  0  0  0  0
   17.4833   52.2776   12.4931 C   0  0  0  0  0  0  0  0  0  0  0  0
   17.1584   51.1774   11.5009 C   0  0  0  0  0  0  0  0  0  0  0  0
   17.3090   53.5146   11.8736 O   0  0  0  0  0  0  0  0  0  0  0  0
   16.5205   54.5321   12.2631 C   0  0  0  0  0  0  0  0  0  0  0  0
   16.4160   55.7093   11.5003 C   0  0  0  0  0  0  0  0  0  0  0  0
   15.5954   56.7041   11.9596 C   0  0  0  0  0  0  0  0  0  0  0  0
   14.8696   56.6517   13.0937 C   0  0  0  0  0  0  0  0  0  0  0  0
   14.0140   57.6964   13.5260 C   0  0  0  0  0  0  0  0  0  0  0  0
   13.2708   58.5884   13.8801 N   0  0  0  0  0  0  0  0  0  0  0  0
   14.9601   55.4557   13.8895 C   0  0  0  0  0  0  0  0  0  0  0  0
   15.7976   54.4554   13.4113 C   0  0  0  0  0  0  0  0  0  0  0  0
   15.9653   53.1752   14.1565 C   0  0  0  0  0  0  0  0  0  0  0  0
   16.7248   52.1834   13.7652 C   0  0  0  0  0  0  0  0  0  0  0  0
   16.9570   51.0541   14.6090 N   0  0  0  0  0  0  0  0  0  0  0  0
   16.3834   50.8285   15.8501 C   0  0  0  0  0  0  0  0  0  0  0  0
   15.7895   51.7504   16.4746 O   0  0  0  0  0  0  0  0  0  0  0  0
   16.4094   49.4821   16.5335 C   0  0  0  0  0  0  0  0  0  0  0  0
   17.5869   49.1747   17.3176 C   0  0  0  0  0  0  0  0  0  0  0  0
   17.6474   47.9292   17.9468 C   0  0  0  0  0  0  0  0  0  0  0  0
   18.7083   47.5699   18.7211 C   0  0  0  0  0  0  0  0  0  0  0  0
   19.7702   48.4224   18.9157 C   0  0  0  0  0  0  0  0  0  0  0  0
   19.7145   49.6522   18.2949 C   0  0  0  0  0  0  0  0  0  0  0  0
   18.6423   50.0106   17.5159 C   0  0  0  0  0  0  0  0  0  0  0  0
   15.0923   49.2257   17.1119 C   0  0  0  0  0  0  0  0  0  0  0  0
   14.2618   48.2981   16.5156 C   0  0  0  0  0  0  0  0  0  0  0  0
   13.0237   47.9789   17.0451 C   0  0  0  0  0  0  0  0  0  0  0  0
   12.6014   48.5942   18.1911 C   0  0  0  0  0  0  0  0  0  0  0  0
   13.4231   49.5246   18.8025 C   0  0  0  0  0  0  0  0  0  0  0  0
   14.6490   49.8479   18.2860 C   0  0  0  0  0  0  0  0  0  0  0  0
  1  2  1  0
  2  3  1  0
  2  4  1  0
  4  5  1  0
  5  6  2  0
  6  7  1  0
  7  8  2  0
  8  9  1  0
  9 10  3  0
  8 11  1  0
 11 12  2  0
 12 13  1  0
 13 14  2  0
 14 15  1  0
 15 16  1  0
 16 17  2  0
 16 18  1  0
 18 19  1  0
 19 20  2  0
 20 21  1  0
 21 22  2  0
 22 23  1  0
 23 24  2  0
 18 25  1  0
 25 26  2  0
 26 27  1  0
 27 28  2  0
 28 29  1  0
 29 30  2  0
 14  2  1  0
 24 19  1  0
 30 25  1  0
 12  5  1  0
M  END
$$$$
