
     RDKit          3D

 24 26  0  0  0  0  0  0  0  0999 V2000
   14.6266   55.1018   11.1095 C   0  0  0  0  0  0  0  0  0  0  0  0
   15.7606   55.7765   11.7021 N   0  0  0  0  0  0  0  0  0  0  0  0
   15.8327   57.1538   11.7602 C   0  0  0  0  0  0  0  0  0  0  0  0
   17.0100   57.5414   12.3341 C   0  0  0  0  0  0  0  0  0  0  0  0
   17.6862   56.3951   12.6412 C   0  0  0  0  0  0  0  0  0  0  0  0
   16.8751   55.3128   12.2329 C   0  0  0  0  0  0  0  0  0  0  0  0
   17.2501   53.9025   12.4397 C   0  0  0  0  0  0  0  0  0  0  0  0
   16.3332   53.0700   12.1596 O   0  0  0  0  0  0  0  0  0  0  0  0
   18.4816   53.4397   12.8955 N   0  0  0  0  0  0  0  0  0  0  0  0
   18.7743   52.1066   13.3012 C   0  0  0  0  0  0  0  0  0  0  0  0
   19.3603   51.8326   14.6169 C   0  0  0  0  0  0  0  0  0  0  0  0
   18.7192   52.2863   15.8580 C   0  0  0  0  0  0  0  0  0  0  0  0
   17.8738   51.2121   16.4414 N   0  0  0  0  0  0  0  0  0  0  0  0
   16.4683   51.2532   16.4691 C   0  0  0  0  0  0  0  0  0  0  0  0
   15.8711   52.2089   15.8745 O   0  0  0  0  0  0  0  0  0  0  0  0
   15.6663   50.2473   17.1501 C   0  0  0  0  0  0  0  0  0  0  0  0
   14.2971   50.3899   17.1330 C   0  0  0  0  0  0  0  0  0  0  0  0
   13.4703   49.4547   17.7707 C   0  0  0  0  0  0  0  0  0  0  0  0
   14.0447   48.3867   18.4173 C   0  0  0  0  0  0  0  0  0  0  0  0
   15.4080   48.2191   18.4505 C   0  0  0  0  0  0  0  0  0  0  0  0
   16.2116   49.1688   17.8050 C   0  0  0  0  0  0  0  0  0  0  0  0
   15.6956   47.0658   19.1665 O   0  0  0  0  0  0  0  0  0  0  0  0
   14.5366   46.6716   19.8599 C   0  0  0  0  0  0  0  0  0  0  0  0
   13.5041   47.3306   19.1164 O   0  0  0  0  0  0  0  0  0  0  0  0
  1  2  1  0
  2  3  1  0
  3  4  2  0
  4  5  1  0
  5  6  2  0
  6  7  1  0
  7  8  2  0
  7  9  1  0
  9 10  1  0
 10 11  1  0
 11 12  1  0
 12 13  1  0
 13 14  1  0
 14 15  2  0
 14 16  1  0
 16 17  2  0
 17 18  1  0
 18 19  2  0
 19 20  1  0
 20 21  2  0
 20 22  1  0
 22 23  1  0
 23 24  1  0
  6  2  1  0
 21 16  1  0
 24 19  1  0
M  END
$$$$
