
     RDKit          3D

 22 23  0  0  0  0  0  0  0  0999 V2000
   31.2134   82.6804   44.0242 C   0  0  0  0  0  0  0  0  0  0  0  0
   31.6604   81.4979   44.8517 C   0  0  0  0  0  0  0  0  0  0  0  0
   30.7517   81.3342   46.0332 C   0  0  0  0  0  0  0  0  0  0  0  0
   31.5712   81.5533   47.3090 C   0  0  0  0  0  0  0  0  0  0  0  0
   30.7379   82.0062   48.4421 C   0  0  0  0  0  0  0  0  0  0  0  0
   31.0052   81.5060   49.7948 C   0  0  0  0  0  0  0  0  0  0  0  0
   31.2612   82.4272   50.9044 C   0  0  0  0  0  0  0  0  0  0  0  0
   31.1431   83.8668   50.5305 C   0  0  0  0  0  0  0  0  0  0  0  0
   30.3998   82.1602   52.1306 C   0  0  0  0  0  0  0  0  0  0  0  0
   32.7015   82.2196   51.3285 C   0  0  0  0  0  0  0  0  0  0  0  0
   33.6638   82.6415   50.4436 C   0  0  0  0  0  0  0  0  0  0  0  0
   34.9999   82.4706   50.7919 C   0  0  0  0  0  0  0  0  0  0  0  0
   35.3517   81.8887   52.0026 C   0  0  0  0  0  0  0  0  0  0  0  0
   36.7626   81.7407   52.3008 C   0  0  0  0  0  0  0  0  0  0  0  0
   37.1438   80.9622   53.3069 C   0  0  0  0  0  0  0  0  0  0  0  0
   38.6345   80.8855   53.5227 C   0  0  0  0  0  0  0  0  0  0  0  0
   39.3704   80.5796   52.2460 C   0  0  0  0  0  0  0  0  0  0  0  0
   40.7277   80.9192   52.3738 O   0  0  0  0  0  0  0  0  0  0  0  0
   38.7719   81.2778   51.0562 C   0  0  0  0  0  0  0  0  0  0  0  0
   37.8535   82.4007   51.5574 C   0  0  0  0  0  0  0  0  0  0  0  0
   34.3578   81.4793   52.8618 C   0  0  0  0  0  0  0  0  0  0  0  0
   33.0065   81.6399   52.5350 C   0  0  0  0  0  0  0  0  0  0  0  0
  1  2  1  0
  2  3  1  0
  3  4  1  0
  4  5  1  0
  5  6  1  0
  6  7  1  0
  7  8  1  0
  7  9  1  0
  7 10  1  0
 10 11  2  0
 11 12  1  0
 12 13  2  0
 13 14  1  0
 14 15  2  0
 15 16  1  0
 16 17  1  0
 17 18  1  0
 17 19  1  0
 19 20  1  0
 13 21  1  0
 21 22  2  0
 22 10  1  0
 20 14  1  0
M  END
$$$$
