
     RDKit          3D

 26 28  0  0  0  0  0  0  0  0999 V2000
   15.4695  102.2563   53.9154 C   0  0  0  0  0  0  0  0  0  0  0  0
   15.2659  100.8553   54.5001 C   0  0  0  0  0  0  0  0  0  0  0  0
   16.6271  100.2404   54.7648 C   0  0  0  0  0  0  0  0  0  0  0  0
   14.4484  100.8512   55.6331 O   0  0  0  0  0  0  0  0  0  0  0  0
   13.7973   99.7430   56.1542 C   0  0  0  0  0  0  0  0  0  0  0  0
   13.3478   99.7943   57.4670 C   0  0  0  0  0  0  0  0  0  0  0  0
   12.6965   98.7235   58.0310 C   0  0  0  0  0  0  0  0  0  0  0  0
   12.4623   97.5565   57.3188 C   0  0  0  0  0  0  0  0  0  0  0  0
   11.7293   96.4916   57.9613 N   0  0  0  0  0  0  0  0  0  0  0  0
   11.6073   96.4937   59.3679 C   0  0  0  0  0  0  0  0  0  0  0  0
   10.7491   97.4462   59.8528 N   0  0  0  0  0  0  0  0  0  0  0  0
   10.5120   97.5896   61.1584 C   0  0  0  0  0  0  0  0  0  0  0  0
    9.5843   98.6566   61.6265 C   0  0  0  0  0  0  0  0  0  0  0  0
   10.0946   99.9305   61.4010 O   0  0  0  0  0  0  0  0  0  0  0  0
   11.1729   96.7291   62.0253 C   0  0  0  0  0  0  0  0  0  0  0  0
   12.0498   95.7510   61.5653 C   0  0  0  0  0  0  0  0  0  0  0  0
   12.7478   94.8553   62.4787 C   0  0  0  0  0  0  0  0  0  0  0  0
   12.3400   94.6675   63.7747 C   0  0  0  0  0  0  0  0  0  0  0  0
   13.0463   93.8048   64.6338 C   0  0  0  0  0  0  0  0  0  0  0  0
   14.1581   93.1256   64.2092 C   0  0  0  0  0  0  0  0  0  0  0  0
   14.8549   92.2838   65.0385 F   0  0  0  0  0  0  0  0  0  0  0  0
   14.5634   93.3190   62.8985 C   0  0  0  0  0  0  0  0  0  0  0  0
   13.8726   94.1635   62.0592 C   0  0  0  0  0  0  0  0  0  0  0  0
   12.2248   95.6843   60.2271 N   0  0  0  0  0  0  0  0  0  0  0  0
   12.8996   97.5018   56.0394 C   0  0  0  0  0  0  0  0  0  0  0  0
   13.5639   98.5847   55.4528 C   0  0  0  0  0  0  0  0  0  0  0  0
  1  2  1  0
  2  3  1  0
  2  4  1  0
  4  5  1  0
  5  6  2  0
  6  7  1  0
  7  8  2  0
  8  9  1  0
  9 10  1  0
 10 11  2  0
 11 12  1  0
 12 13  1  0
 13 14  1  0
 12 15  2  0
 15 16  1  0
 16 17  1  0
 17 18  2  0
 18 19  1  0
 19 20  2  0
 20 21  1  0
 20 22  1  0
 22 23  2  0
 16 24  2  0
  8 25  1  0
 25 26  2  0
 26  5  1  0
 24 10  1  0
 23 17  1  0
M  END
$$$$
