
     RDKit          3D

 28 30  0  0  0  0  0  0  0  0999 V2000
    9.3966   97.2570   57.9466 N   0  0  0  0  0  0  0  0  0  0  0  0
   10.3049   97.2975   58.7018 C   0  0  0  0  0  0  0  0  0  0  0  0
   11.4123   97.3534   59.6546 C   0  0  0  0  0  0  0  0  0  0  0  0
   12.4987   98.0007   59.3090 C   0  0  0  0  0  0  0  0  0  0  0  0
   12.6376   98.6456   57.9864 C   0  0  0  0  0  0  0  0  0  0  0  0
   11.5973   98.8430   57.0803 C   0  0  0  0  0  0  0  0  0  0  0  0
   12.1701   99.4707   55.9907 C   0  0  0  0  0  0  0  0  0  0  0  0
   13.5121   99.6333   56.2557 C   0  0  0  0  0  0  0  0  0  0  0  0
   14.5052  100.2532   55.3670 C   0  0  0  0  0  0  0  0  0  0  0  0
   15.6882  100.6868   55.9085 C   0  0  0  0  0  0  0  0  0  0  0  0
   16.6985  101.2817   55.1291 C   0  0  0  0  0  0  0  0  0  0  0  0
   16.4714  101.4241   53.7764 C   0  0  0  0  0  0  0  0  0  0  0  0
   15.2924  100.9966   53.2113 C   0  0  0  0  0  0  0  0  0  0  0  0
   15.0708  101.1511   51.7943 C   0  0  0  0  0  0  0  0  0  0  0  0
   16.1403  101.5553   50.9542 N   0  0  0  0  0  0  0  0  0  0  0  0
   13.9379  100.9336   51.2665 O   0  0  0  0  0  0  0  0  0  0  0  0
   14.3090  100.4095   54.0174 C   0  0  0  0  0  0  0  0  0  0  0  0
   13.7054   99.1267   57.4391 O   0  0  0  0  0  0  0  0  0  0  0  0
   11.1965   96.6834   60.9320 C   0  0  0  0  0  0  0  0  0  0  0  0
   10.7765   97.3332   61.9425 O   0  0  0  0  0  0  0  0  0  0  0  0
   11.4453   95.3012   61.0933 N   0  0  0  0  0  0  0  0  0  0  0  0
   11.3264   94.5943   62.3501 C   0  0  0  0  0  0  0  0  0  0  0  0
   12.4854   93.6878   62.5528 C   0  0  0  0  0  0  0  0  0  0  0  0
   13.7875   94.1280   62.6802 C   0  0  0  0  0  0  0  0  0  0  0  0
   14.8576   93.2517   62.8515 C   0  0  0  0  0  0  0  0  0  0  0  0
   14.5856   91.9037   62.8931 C   0  0  0  0  0  0  0  0  0  0  0  0
   13.3083   91.4196   62.7718 C   0  0  0  0  0  0  0  0  0  0  0  0
   12.2808   92.3247   62.6035 C   0  0  0  0  0  0  0  0  0  0  0  0
  1  2  3  0
  2  3  1  0
  3  4  2  0
  4  5  1  0
  5  6  2  0
  6  7  1  0
  7  8  2  0
  8  9  1  0
  9 10  2  0
 10 11  1  0
 11 12  2  0
 12 13  1  0
 13 14  1  0
 14 15  1  0
 14 16  2  0
 13 17  2  0
  8 18  1  0
  3 19  1  0
 19 20  2  0
 19 21  1  0
 21 22  1  0
 22 23  1  0
 23 24  2  0
 24 25  1  0
 25 26  2  0
 26 27  1  0
 27 28  2  0
 18  5  1  0
 28 23  1  0
 17  9  1  0
M  END
$$$$
