
     RDKit          3D

 26 29  0  0  0  0  0  0  0  0999 V2000
   15.5264   91.0980   64.7948 F   0  0  0  0  0  0  0  0  0  0  0  0
   14.9822   92.1460   64.1106 C   0  0  0  0  0  0  0  0  0  0  0  0
   15.7538   93.0140   63.3725 C   0  0  0  0  0  0  0  0  0  0  0  0
   15.1698   94.0715   62.6870 C   0  0  0  0  0  0  0  0  0  0  0  0
   13.8105   94.2970   62.7138 C   0  0  0  0  0  0  0  0  0  0  0  0
   13.2281   95.3678   62.0097 N   0  0  0  0  0  0  0  0  0  0  0  0
   14.0884   96.2411   61.2511 C   0  0  0  0  0  0  0  0  0  0  0  0
   13.4170   97.1331   60.2751 C   0  0  0  0  0  0  0  0  0  0  0  0
   12.0666   97.5064   60.6097 N   0  0  0  0  0  0  0  0  0  0  0  0
   11.1251   97.1858   59.5963 C   0  0  0  0  0  0  0  0  0  0  0  0
   10.3458   98.3640   59.0723 C   0  0  0  0  0  0  0  0  0  0  0  0
   10.7080   98.7219   57.6474 C   0  0  0  0  0  0  0  0  0  0  0  0
   10.8200  100.5345   57.4505 S   0  0  0  0  0  0  0  0  0  0  0  0
   12.0239  100.9553   56.1976 C   0  0  0  0  0  0  0  0  0  0  0  0
   12.7998  100.0343   55.6014 N   0  0  0  0  0  0  0  0  0  0  0  0
   13.5879  100.6536   54.7207 C   0  0  0  0  0  0  0  0  0  0  0  0
   14.5709  100.2625   53.8282 C   0  0  0  0  0  0  0  0  0  0  0  0
   15.2313  101.1619   53.0229 C   0  0  0  0  0  0  0  0  0  0  0  0
   14.9279  102.5058   53.0819 C   0  0  0  0  0  0  0  0  0  0  0  0
   13.9493  102.9006   53.9694 C   0  0  0  0  0  0  0  0  0  0  0  0
   13.2726  101.9922   54.7922 C   0  0  0  0  0  0  0  0  0  0  0  0
   12.3294  102.1235   55.6919 O   0  0  0  0  0  0  0  0  0  0  0  0
   11.6642   97.1415   61.9115 C   0  0  0  0  0  0  0  0  0  0  0  0
   11.7997   95.6152   62.0335 C   0  0  0  0  0  0  0  0  0  0  0  0
   13.0440   93.4191   63.4582 C   0  0  0  0  0  0  0  0  0  0  0  0
   13.6361   92.3653   64.1401 C   0  0  0  0  0  0  0  0  0  0  0  0
  1  2  1  0
  2  3  2  0
  3  4  1  0
  4  5  2  0
  5  6  1  0
  6  7  1  0
  7  8  1  0
  8  9  1  0
  9 10  1  0
 10 11  1  0
 11 12  1  0
 12 13  1  0
 13 14  1  0
 14 15  2  0
 15 16  1  0
 16 17  2  0
 17 18  1  0
 18 19  2  0
 19 20  1  0
 20 21  2  0
 21 22  1  0
  9 23  1  0
 23 24  1  0
  5 25  1  0
 25 26  2  0
 26  2  1  0
 24  6  1  0
 22 14  1  0
 21 16  1  0
M  END
$$$$
