
     RDKit          3D

 23 26  0  0  0  0  0  0  0  0999 V2000
    9.5039   96.2258   62.6637 C   0  0  0  0  0  0  0  0  0  0  0  0
   10.4575   96.7003   61.6403 C   0  0  0  0  0  0  0  0  0  0  0  0
   11.6142   96.0849   61.2213 C   0  0  0  0  0  0  0  0  0  0  0  0
   12.1443   96.9263   60.2521 C   0  0  0  0  0  0  0  0  0  0  0  0
   11.2890   97.9923   60.1398 C   0  0  0  0  0  0  0  0  0  0  0  0
   11.5591   99.1003   59.1761 C   0  0  0  0  0  0  0  0  0  0  0  0
   12.1983   99.4096   58.2695 N   0  0  0  0  0  0  0  0  0  0  0  0
   12.2346  100.5081   57.5728 C   0  0  0  0  0  0  0  0  0  0  0  0
   13.1556  100.7192   56.3970 C   0  0  0  0  0  0  0  0  0  0  0  0
   12.7034   99.9345   55.2846 N   0  0  0  0  0  0  0  0  0  0  0  0
   11.6580   99.0677   55.3476 C   0  0  0  0  0  0  0  0  0  0  0  0
   11.5172   98.4996   54.1043 C   0  0  0  0  0  0  0  0  0  0  0  0
   12.4653   99.0328   53.3453 N   0  0  0  0  0  0  0  0  0  0  0  0
   13.2128   99.9267   54.0609 C   0  0  0  0  0  0  0  0  0  0  0  0
   14.3250  100.6748   53.5023 C   0  0  0  0  0  0  0  0  0  0  0  0
   14.4859  100.9019   52.1507 C   0  0  0  0  0  0  0  0  0  0  0  0
   15.5620  101.6170   51.6553 C   0  0  0  0  0  0  0  0  0  0  0  0
   16.5005  102.1183   52.5228 C   0  0  0  0  0  0  0  0  0  0  0  0
   16.3418  101.8967   53.8331 N   0  0  0  0  0  0  0  0  0  0  0  0
   15.2878  101.1952   54.3324 C   0  0  0  0  0  0  0  0  0  0  0  0
   11.3165  101.4847   58.0279 C   0  0  0  0  0  0  0  0  0  0  0  0
   10.5256  100.6754   59.4043 S   0  0  0  0  0  0  0  0  0  0  0  0
   10.3077   97.8392   60.9626 O   0  0  0  0  0  0  0  0  0  0  0  0
  1  2  1  0
  2  3  2  0
  3  4  1  0
  4  5  2  0
  5  6  1  0
  6  7  2  0
  7  8  1  0
  8  9  1  0
  9 10  1  0
 10 11  1  0
 11 12  2  0
 12 13  1  0
 13 14  2  0
 14 15  1  0
 15 16  2  0
 16 17  1  0
 17 18  2  0
 18 19  1  0
 19 20  2  0
  8 21  2  0
 21 22  1  0
  5 23  1  0
 23  2  1  0
 22  6  1  0
 14 10  1  0
 20 15  1  0
M  END
$$$$
