
     RDKit          3D

 23 26  0  0  0  0  0  0  0  0999 V2000
   32.0638   80.1612   48.0825 C   0  0  0  0  0  0  0  0  0  0  0  0
   32.5454   81.0650   49.1898 C   0  0  0  0  0  0  0  0  0  0  0  0
   33.7270   81.7641   48.7922 N   0  0  0  0  0  0  0  0  0  0  0  0
   34.8483   81.8570   49.6598 C   0  0  0  0  0  0  0  0  0  0  0  0
   34.8135   81.4684   50.9742 C   0  0  0  0  0  0  0  0  0  0  0  0
   35.9368   81.5754   51.7784 C   0  0  0  0  0  0  0  0  0  0  0  0
   37.1457   82.0725   51.3169 C   0  0  0  0  0  0  0  0  0  0  0  0
   38.2766   82.1638   52.1745 N   0  0  0  0  0  0  0  0  0  0  0  0
   38.2475   82.1421   53.6265 C   0  0  0  0  0  0  0  0  0  0  0  0
   39.5531   81.3784   53.8983 C   0  0  0  0  0  0  0  0  0  0  0  0
   40.4266   82.0343   53.0021 O   0  0  0  0  0  0  0  0  0  0  0  0
   39.6515   82.2900   51.8514 C   0  0  0  0  0  0  0  0  0  0  0  0
   40.1062   82.5826   50.7221 O   0  0  0  0  0  0  0  0  0  0  0  0
   37.1672   82.4598   49.9940 C   0  0  0  0  0  0  0  0  0  0  0  0
   36.0575   82.3589   49.1823 C   0  0  0  0  0  0  0  0  0  0  0  0
   31.4443   81.9779   49.5852 C   0  0  0  0  0  0  0  0  0  0  0  0
   30.6696   82.7280   48.7828 N   0  0  0  0  0  0  0  0  0  0  0  0
   29.8000   83.4078   49.5097 N   0  0  0  0  0  0  0  0  0  0  0  0
   29.9957   83.1094   50.8067 C   0  0  0  0  0  0  0  0  0  0  0  0
   31.0025   82.2338   50.8543 N   0  0  0  0  0  0  0  0  0  0  0  0
   31.2688   81.8708   52.2102 C   0  0  0  0  0  0  0  0  0  0  0  0
   29.9940   82.1904   52.9522 C   0  0  0  0  0  0  0  0  0  0  0  0
   29.4864   83.4111   52.1790 C   0  0  0  0  0  0  0  0  0  0  0  0
  1  2  1  0
  2  3  1  0
  3  4  1  0
  4  5  2  0
  5  6  1  0
  6  7  2  0
  7  8  1  0
  8  9  1  0
  9 10  1  0
 10 11  1  0
 11 12  1  0
 12 13  2  0
  7 14  1  0
 14 15  2  0
  2 16  1  0
 16 17  2  0
 17 18  1  0
 18 19  2  0
 19 20  1  0
 20 21  1  0
 21 22  1  0
 22 23  1  0
 15  4  1  0
 20 16  1  0
 12  8  1  0
 23 19  1  0
M  END
$$$$
