
     RDKit          3D

 24 25  0  0  0  0  0  0  0  0999 V2000
   29.4216   82.6788   47.5528 C   0  0  0  0  0  0  0  0  0  0  0  0
   30.7547   82.4103   47.1986 O   0  0  0  0  0  0  0  0  0  0  0  0
   31.7153   82.2348   48.1731 C   0  0  0  0  0  0  0  0  0  0  0  0
   32.9987   81.8851   47.8083 C   0  0  0  0  0  0  0  0  0  0  0  0
   33.9257   81.7201   48.8117 C   0  0  0  0  0  0  0  0  0  0  0  0
   33.6512   81.8816   50.1432 C   0  0  0  0  0  0  0  0  0  0  0  0
   34.6394   81.7064   51.2189 C   0  0  0  0  0  0  0  0  0  0  0  0
   35.4678   82.6367   51.6249 C   0  0  0  0  0  0  0  0  0  0  0  0
   36.7328   82.3884   52.3187 C   0  0  0  0  0  0  0  0  0  0  0  0
   37.6694   83.3387   52.6086 C   0  0  0  0  0  0  0  0  0  0  0  0
   38.8517   82.9972   53.2788 C   0  0  0  0  0  0  0  0  0  0  0  0
   39.7387   84.0155   53.5300 O   0  0  0  0  0  0  0  0  0  0  0  0
   39.3947   85.3096   53.9145 C   0  0  0  0  0  0  0  0  0  0  0  0
   39.1069   81.6995   53.6652 C   0  0  0  0  0  0  0  0  0  0  0  0
   40.2645   81.3727   54.3199 O   0  0  0  0  0  0  0  0  0  0  0  0
   41.5002   81.3080   53.6589 C   0  0  0  0  0  0  0  0  0  0  0  0
   38.1719   80.7251   53.3809 C   0  0  0  0  0  0  0  0  0  0  0  0
   38.3842   79.3907   53.7526 O   0  0  0  0  0  0  0  0  0  0  0  0
   37.3030   78.4937   53.9201 C   0  0  0  0  0  0  0  0  0  0  0  0
   37.0217   81.0907   52.7222 C   0  0  0  0  0  0  0  0  0  0  0  0
   32.3588   82.2330   50.4984 C   0  0  0  0  0  0  0  0  0  0  0  0
   32.0257   82.4111   51.8563 O   0  0  0  0  0  0  0  0  0  0  0  0
   30.6709   82.5338   52.2262 C   0  0  0  0  0  0  0  0  0  0  0  0
   31.4010   82.4079   49.5265 C   0  0  0  0  0  0  0  0  0  0  0  0
  1  2  1  0
  2  3  1  0
  3  4  2  0
  4  5  1  0
  5  6  2  0
  6  7  1  0
  7  8  2  0
  8  9  1  0
  9 10  2  0
 10 11  1  0
 11 12  1  0
 12 13  1  0
 11 14  2  0
 14 15  1  0
 15 16  1  0
 14 17  1  0
 17 18  1  0
 18 19  1  0
 17 20  2  0
  6 21  1  0
 21 22  1  0
 22 23  1  0
 21 24  2  0
 24  3  1  0
 20  9  1  0
M  END
$$$$
