
     RDKit          3D

 31 34  0  0  0  0  0  0  0  0999 V2000
   13.2647   96.5863   59.9799 O   0  0  0  0  0  0  0  0  0  0  0  0
   12.5276   96.9743   60.9237 C   0  0  0  0  0  0  0  0  0  0  0  0
   12.2731   96.0870   62.0151 N   0  0  0  0  0  0  0  0  0  0  0  0
   13.3024   95.2571   62.5277 C   0  0  0  0  0  0  0  0  0  0  0  0
   13.1421   94.5599   63.7057 C   0  0  0  0  0  0  0  0  0  0  0  0
   14.1674   93.7457   64.1972 C   0  0  0  0  0  0  0  0  0  0  0  0
   15.3579   93.6254   63.5121 C   0  0  0  0  0  0  0  0  0  0  0  0
   15.5231   94.3183   62.3370 C   0  0  0  0  0  0  0  0  0  0  0  0
   14.5018   95.1184   61.8641 C   0  0  0  0  0  0  0  0  0  0  0  0
   11.9612   98.2815   60.8929 N   0  0  0  0  0  0  0  0  0  0  0  0
   11.4915   98.8889   59.7059 C   0  0  0  0  0  0  0  0  0  0  0  0
   10.1601   99.2324   59.6301 C   0  0  0  0  0  0  0  0  0  0  0  0
    9.6270   99.8292   58.5037 C   0  0  0  0  0  0  0  0  0  0  0  0
   10.4296  100.0944   57.4222 C   0  0  0  0  0  0  0  0  0  0  0  0
   11.7661   99.7625   57.4675 C   0  0  0  0  0  0  0  0  0  0  0  0
   12.6388  100.0425   56.3116 C   0  0  0  0  0  0  0  0  0  0  0  0
   12.1505  100.1999   55.0751 N   0  0  0  0  0  0  0  0  0  0  0  0
   12.9387  100.4558   54.0133 C   0  0  0  0  0  0  0  0  0  0  0  0
   12.4740  100.6236   52.7287 C   0  0  0  0  0  0  0  0  0  0  0  0
   13.3316  100.8857   51.6707 C   0  0  0  0  0  0  0  0  0  0  0  0
   14.6845  100.9820   51.9036 C   0  0  0  0  0  0  0  0  0  0  0  0
   15.6149  101.2652   50.7633 C   0  0  0  0  0  0  0  0  0  0  0  0
   15.7308  102.6466   50.6718 F   0  0  0  0  0  0  0  0  0  0  0  0
   15.0749  100.7998   49.5901 F   0  0  0  0  0  0  0  0  0  0  0  0
   16.8475  100.6796   50.9613 F   0  0  0  0  0  0  0  0  0  0  0  0
   15.1697  100.8160   53.1897 C   0  0  0  0  0  0  0  0  0  0  0  0
   14.2933  100.5566   54.2202 C   0  0  0  0  0  0  0  0  0  0  0  0
   14.7657  100.3904   55.4995 C   0  0  0  0  0  0  0  0  0  0  0  0
   16.0071  100.4839   55.6825 O   0  0  0  0  0  0  0  0  0  0  0  0
   13.9266  100.1402   56.4973 O   0  0  0  0  0  0  0  0  0  0  0  0
   12.2569   99.1728   58.6005 C   0  0  0  0  0  0  0  0  0  0  0  0
  1  2  2  0
  2  3  1  0
  3  4  1  0
  4  5  2  0
  5  6  1  0
  6  7  2  0
  7  8  1  0
  8  9  2  0
  2 10  1  0
 10 11  1  0
 11 12  2  0
 12 13  1  0
 13 14  2  0
 14 15  1  0
 15 16  1  0
 16 17  2  0
 17 18  1  0
 18 19  2  0
 19 20  1  0
 20 21  2  0
 21 22  1  0
 22 23  1  0
 22 24  1  0
 22 25  1  0
 21 26  1  0
 26 27  2  0
 27 28  1  0
 28 29  2  0
 28 30  1  0
 15 31  2  0
  9  4  1  0
 31 11  1  0
 30 16  1  0
 27 18  1  0
M  END
$$$$
