
     RDKit          3D

 27 29  0  0  0  0  0  0  0  0999 V2000
   36.0228   82.3541   54.0006 C   0  0  0  0  0  0  0  0  0  0  0  0
   35.0295   82.2940   53.0432 O   0  0  0  0  0  0  0  0  0  0  0  0
   35.1331   82.3906   51.6866 N   0  0  0  0  0  0  0  0  0  0  0  0
   34.1509   82.3163   50.7602 C   0  0  0  0  0  0  0  0  0  0  0  0
   32.7383   82.1253   50.9959 C   0  0  0  0  0  0  0  0  0  0  0  0
   32.1837   82.5780   52.1944 C   0  0  0  0  0  0  0  0  0  0  0  0
   30.8696   82.4437   52.5211 C   0  0  0  0  0  0  0  0  0  0  0  0
   30.0482   81.8198   51.6012 C   0  0  0  0  0  0  0  0  0  0  0  0
   28.3595   81.6243   51.9731 Cl  0  0  0  0  0  0  0  0  0  0  0  0
   30.5756   81.3660   50.4133 C   0  0  0  0  0  0  0  0  0  0  0  0
   31.9102   81.5073   50.0920 C   0  0  0  0  0  0  0  0  0  0  0  0
   34.7154   82.4400   49.4923 C   0  0  0  0  0  0  0  0  0  0  0  0
   36.0152   82.5861   49.6647 N   0  0  0  0  0  0  0  0  0  0  0  0
   36.2785   82.5571   51.0073 C   0  0  0  0  0  0  0  0  0  0  0  0
   37.6438   82.7090   51.5467 C   0  0  0  0  0  0  0  0  0  0  0  0
   38.8071   81.6454   50.7485 S   0  0  0  0  0  3  0  0  0  0  0  0
   38.0729   80.3609   50.0105 O   0  0  0  0  0  1  0  0  0  0  0  0
   40.0355   81.0624   51.8986 C   0  0  0  0  0  0  0  0  0  0  0  0
   39.5052   80.0362   52.8002 C   0  0  0  0  0  0  0  0  0  0  0  0
   38.3506   79.5894   52.6155 O   0  0  0  0  0  0  0  0  0  0  0  0
   40.2749   79.5419   53.8749 N   0  0  0  0  0  0  0  0  0  0  0  0
   41.6877   79.8072   54.0366 C   0  0  0  0  0  0  0  0  0  0  0  0
   42.0270   80.0796   55.4894 C   0  0  0  0  0  0  0  0  0  0  0  0
   41.5929   78.9673   56.3901 C   0  0  0  0  0  0  0  0  0  0  0  0
   42.7691   78.1806   56.9417 C   0  0  0  0  0  0  0  0  0  0  0  0
   40.6727   77.9946   55.7216 C   0  0  0  0  0  0  0  0  0  0  0  0
   39.6352   78.7229   54.8809 C   0  0  0  0  0  0  0  0  0  0  0  0
  1  2  1  0
  2  3  1  0
  3  4  1  0
  4  5  1  0
  5  6  2  0
  6  7  1  0
  7  8  2  0
  8  9  1  0
  8 10  1  0
 10 11  2  0
  4 12  2  0
 12 13  1  0
 13 14  2  0
 14 15  1  0
 15 16  1  0
 16 17  1  0
 16 18  1  0
 18 19  1  0
 19 20  2  0
 19 21  1  0
 21 22  1  0
 22 23  1  0
 23 24  1  0
 24 25  1  0
 24 26  1  0
 26 27  1  0
 14  3  1  0
 27 21  1  0
 11  5  1  0
M  CHG  2  16   1  17  -1
M  END
$$$$
