
     RDKit          3D

 26 28  0  0  0  0  0  0  0  0999 V2000
   31.2709   81.3450   48.2465 Cl  0  0  0  0  0  0  0  0  0  0  0  0
   31.4074   81.8260   49.9287 C   0  0  0  0  0  0  0  0  0  0  0  0
   30.2853   82.2403   50.6030 C   0  0  0  0  0  0  0  0  0  0  0  0
   30.3680   82.6220   51.9190 C   0  0  0  0  0  0  0  0  0  0  0  0
   28.9136   83.1401   52.7345 Cl  0  0  0  0  0  0  0  0  0  0  0  0
   31.6125   82.5782   52.5479 C   0  0  0  0  0  0  0  0  0  0  0  0
   32.7392   82.1653   51.8806 C   0  0  0  0  0  0  0  0  0  0  0  0
   34.0433   82.1271   52.5461 C   0  0  0  0  0  0  0  0  0  0  0  0
   35.0003   83.1392   52.0204 C   0  0  0  0  0  0  0  0  0  0  0  0
   36.2759   83.1938   52.6757 N   0  0  0  0  0  0  0  0  0  0  0  0
   37.2893   82.3886   52.1274 C   0  0  2  0  0  0  0  0  0  0  0  0
   37.4313   82.6857   50.6510 C   0  0  0  0  0  0  0  0  0  0  0  0
   38.6304   82.1516   50.0616 N   0  0  0  0  0  0  0  0  0  0  0  0
   38.7425   81.0858   49.2540 C   0  0  0  0  0  0  0  0  0  0  0  0
   40.0643   80.9233   48.9053 C   0  0  0  0  0  0  0  0  0  0  0  0
   40.7516   81.9024   49.5105 N   0  0  0  0  0  0  0  0  0  0  0  0
   39.8704   82.6370   50.2058 C   0  0  0  0  0  0  0  0  0  0  0  0
   37.3220   80.9859   52.4992 C   0  0  0  0  0  0  0  0  0  0  0  0
   36.7999   80.0131   51.6260 C   0  0  0  0  0  0  0  0  0  0  0  0
   36.8095   78.6875   51.9461 C   0  0  0  0  0  0  0  0  0  0  0  0
   37.3334   78.2552   53.1414 C   0  0  0  0  0  0  0  0  0  0  0  0
   37.3101   76.5310   53.4818 Cl  0  0  0  0  0  0  0  0  0  0  0  0
   37.8421   79.1738   53.9996 C   0  0  0  0  0  0  0  0  0  0  0  0
   37.8378   80.5341   53.6821 C   0  0  0  0  0  0  0  0  0  0  0  0
   38.5427   81.5645   54.9177 Cl  0  0  0  0  0  0  0  0  0  0  0  0
   32.6395   81.7874   50.5671 C   0  0  0  0  0  0  0  0  0  0  0  0
  1  2  1  0
  2  3  2  0
  3  4  1  0
  4  5  1  0
  4  6  2  0
  6  7  1  0
  7  8  1  0
  8  9  1  0
  9 10  1  0
 10 11  1  0
 11 12  1  6
 12 13  1  0
 13 14  1  0
 14 15  2  0
 15 16  1  0
 16 17  2  0
 11 18  1  0
 18 19  2  0
 19 20  1  0
 20 21  2  0
 21 22  1  0
 21 23  1  0
 23 24  2  0
 24 25  1  0
  7 26  2  0
 26  2  1  0
 17 13  1  0
 24 18  1  0
M  END
$$$$
