
     RDKit          3D

 19 20  0  0  0  0  0  0  0  0999 V2000
   15.8532   57.0954   11.6703 C   0  0  0  0  0  0  0  0  0  0  0  0
   16.2969   55.8839   12.3639 N   0  0  0  0  0  0  0  0  0  0  0  0
   15.4243   55.1255   13.1734 C   0  0  0  0  0  0  0  0  0  0  0  0
   14.2303   55.4679   13.2770 O   0  0  0  0  0  0  0  0  0  0  0  0
   15.9134   53.9635   13.8740 C   0  0  0  0  0  0  0  0  0  0  0  0
   15.1536   53.1497   14.7211 C   0  0  0  0  0  0  0  0  0  0  0  0
   15.9960   52.1604   15.1800 C   0  0  0  0  0  0  0  0  0  0  0  0
   15.6426   51.0741   16.0970 C   0  0  0  0  0  0  0  0  0  0  0  0
   16.6256   50.3082   16.6844 C   0  0  0  0  0  0  0  0  0  0  0  0
   16.2396   49.2981   17.5399 C   0  0  0  0  0  0  0  0  0  0  0  0
   14.9210   49.0287   17.8263 C   0  0  0  0  0  0  0  0  0  0  0  0
   14.5359   47.9404   18.7466 C   0  0  0  0  0  0  0  0  0  0  0  0
   15.3901   46.8639   18.5714 F   0  0  0  0  0  0  0  0  0  0  0  0
   14.7044   48.3758   20.0541 F   0  0  0  0  0  0  0  0  0  0  0  0
   13.2441   47.5588   18.5151 F   0  0  0  0  0  0  0  0  0  0  0  0
   13.9532   49.8038   17.2306 C   0  0  0  0  0  0  0  0  0  0  0  0
   14.3199   50.8172   16.3734 C   0  0  0  0  0  0  0  0  0  0  0  0
   17.1706   52.3673   14.6474 O   0  0  0  0  0  0  0  0  0  0  0  0
   17.1459   53.4160   13.8803 N   0  0  0  0  0  0  0  0  0  0  0  0
  1  2  1  0
  2  3  1  0
  3  4  2  0
  3  5  1  0
  5  6  1  0
  6  7  2  0
  7  8  1  0
  8  9  2  0
  9 10  1  0
 10 11  2  0
 11 12  1  0
 12 13  1  0
 12 14  1  0
 12 15  1  0
 11 16  1  0
 16 17  2  0
  7 18  1  0
 18 19  1  0
 19  5  2  0
 17  8  1  0
M  END
$$$$
