
     RDKit          3D

 21 24  0  0  0  0  0  0  0  0999 V2000
   10.3485  102.6263   57.3108 F   0  0  0  0  0  0  0  0  0  0  0  0
   10.7835  101.5152   57.9310 C   0  0  0  0  0  0  0  0  0  0  0  0
   10.3426  101.1751   59.1918 C   0  0  0  0  0  0  0  0  0  0  0  0
   10.8232  100.0315   59.7684 C   0  0  0  0  0  0  0  0  0  0  0  0
   10.3986   99.7053   61.0098 F   0  0  0  0  0  0  0  0  0  0  0  0
   11.7247   99.2102   59.1432 C   0  0  0  0  0  0  0  0  0  0  0  0
   12.1641   99.5482   57.8888 C   0  0  0  0  0  0  0  0  0  0  0  0
   11.6840  100.6989   57.3025 C   0  0  0  0  0  0  0  0  0  0  0  0
   13.1384   98.7362   57.1348 C   0  0  0  0  0  0  0  0  0  0  0  0
   13.7121   97.5811   57.8745 C   0  0  0  0  0  0  0  0  0  0  0  0
   13.5709   97.6466   59.3780 C   0  0  0  0  0  0  0  0  0  0  0  0
   12.2158   98.0250   59.7569 N   0  0  0  0  0  0  0  0  0  0  0  0
   11.3856   97.3253   60.6819 C   0  0  0  0  0  0  0  0  0  0  0  0
   12.2438   96.5193   61.6340 C   0  0  0  0  0  0  0  0  0  0  0  0
   12.7690   96.8962   62.8087 N   0  0  0  0  0  0  0  0  0  0  0  0
   13.4627   95.8806   63.3292 N   0  0  0  0  0  0  0  0  0  0  0  0
   13.3625   94.8609   62.4594 C   0  0  0  0  0  0  0  0  0  0  0  0
   13.9806   93.4927   62.6071 C   0  0  0  0  0  0  0  0  0  0  0  0
   14.3908   93.0567   63.9557 C   0  0  0  0  0  0  0  0  0  0  0  0
   15.4598   93.4605   63.0140 C   0  0  0  0  0  0  0  0  0  0  0  0
   12.6273   95.2841   61.4630 O   0  0  0  0  0  0  0  0  0  0  0  0
  1  2  1  0
  2  3  2  0
  3  4  1  0
  4  5  1  0
  4  6  2  0
  6  7  1  0
  7  8  2  0
  7  9  1  0
  9 10  1  0
 10 11  1  0
 11 12  1  0
 12 13  1  0
 13 14  1  0
 14 15  2  0
 15 16  1  0
 16 17  2  0
 17 18  1  0
 18 19  1  0
 19 20  1  0
 17 21  1  0
  8  2  1  0
 21 14  1  0
 12  6  1  0
 20 18  1  0
M  END
$$$$
