
     RDKit          3D

 13 15  0  0  0  0  0  0  0  0999 V2000
   10.9651   90.7303   65.6403 C   0  0  0  0  0  0  0  0  0  0  0  0
   10.7143   91.6947   64.4981 C   0  0  0  0  0  0  0  0  0  0  0  0
   11.9145   92.4333   64.1196 C   0  0  0  0  0  0  0  0  0  0  0  0
   13.2354   92.0376   64.2182 C   0  0  0  0  0  0  0  0  0  0  0  0
   14.1140   93.0792   63.7537 C   0  0  0  0  0  0  0  0  0  0  0  0
   15.2021   93.0740   62.7660 C   0  0  0  0  0  0  0  0  0  0  0  0
   15.1308   94.5354   62.2669 N   0  0  0  0  0  0  0  0  0  0  0  0
   13.7480   94.8837   62.2835 C   0  0  0  0  0  0  0  0  0  0  0  0
   12.8424   95.7646   61.7282 C   0  0  0  0  0  0  0  0  0  0  0  0
   11.4635   95.6276   61.9693 C   0  0  0  0  0  0  0  0  0  0  0  0
   11.0018   94.5854   62.7796 C   0  0  0  0  0  0  0  0  0  0  0  0
   11.8957   93.6777   63.3561 C   0  0  0  0  0  0  0  0  0  0  0  0
   13.1550   93.9444   63.0402 C   0  0  0  0  0  0  0  0  0  0  0  0
  1  2  1  0
  2  3  1  0
  3  4  2  0
  4  5  1  0
  5  6  1  0
  6  7  1  0
  7  8  1  0
  8  9  2  0
  9 10  1  0
 10 11  2  0
 11 12  1  0
 12 13  2  0
 12  3  1  0
 13  5  1  0
 13  8  1  0
M  END
$$$$
