
     RDKit          3D

 32 34  0  0  0  0  0  0  0  0999 V2000
   32.2088   81.7196   48.9036 C   0  0  0  0  0  0  0  0  0  0  0  0
   32.5633   81.8885   50.3335 N   0  0  0  0  0  0  0  0  0  0  0  0
   31.5063   81.9536   51.2497 C   0  0  0  0  0  0  0  0  0  0  0  0
   30.2227   82.2545   50.8364 C   0  0  0  0  0  0  0  0  0  0  0  0
   29.1234   82.2138   51.6975 C   0  0  0  0  0  0  0  0  0  0  0  0
   29.2989   81.8672   53.0018 C   0  0  0  0  0  0  0  0  0  0  0  0
   30.5507   81.5634   53.4457 C   0  0  0  0  0  0  0  0  0  0  0  0
   31.6495   81.6030   52.5821 C   0  0  0  0  0  0  0  0  0  0  0  0
   33.9594   82.0037   50.6168 C   0  0  0  0  0  0  0  0  0  0  0  0
   34.5099   82.3945   51.8050 C   0  0  0  0  0  0  0  0  0  0  0  0
   35.8981   82.4107   52.0272 C   0  0  0  0  0  0  0  0  0  0  0  0
   36.7710   82.0366   51.0586 C   0  0  0  0  0  0  0  0  0  0  0  0
   38.1294   82.0566   51.2851 C   0  0  0  0  0  0  0  0  0  0  0  0
   38.6140   82.4705   52.5409 N   0  0  0  0  0  0  0  0  0  0  0  0
   38.9085   83.8742   52.7565 C   0  0  0  0  0  0  0  0  0  0  0  0
   38.8822   81.3868   53.8596 S   0  0  0  0  0  6  0  0  0  0  0  0
   38.6194   82.0525   55.1790 O   0  0  0  0  0  0  0  0  0  0  0  0
   37.9151   80.2414   53.6870 O   0  0  0  0  0  0  0  0  0  0  0  0
   40.4595   80.7396   53.8703 N   0  0  0  0  0  0  0  0  0  0  0  0
   41.4812   81.7575   54.0125 C   0  0  0  0  0  0  0  0  0  0  0  0
   42.8636   81.2002   54.0230 C   0  0  2  0  0  0  0  0  0  0  0  0
   43.2466   80.4076   52.8162 C   0  0  0  0  0  0  0  0  0  0  0  0
   44.4985   79.6811   53.3287 C   0  0  0  0  0  0  0  0  0  0  0  0
   44.1803   79.5642   54.7958 C   0  0  0  0  0  0  0  0  0  0  0  0
   43.0630   80.3071   55.0632 O   0  0  0  0  0  0  0  0  0  0  0  0
   38.9333   81.6599   50.2392 C   0  0  0  0  0  0  0  0  0  0  0  0
   38.3658   81.2702   49.0430 C   0  0  0  0  0  0  0  0  0  0  0  0
   39.1035   80.9127   48.1019 O   0  0  0  0  0  0  0  0  0  0  0  0
   37.0712   81.2636   48.8632 O   0  0  0  0  0  0  0  0  0  0  0  0
   36.2451   81.6377   49.8411 C   0  0  0  0  0  0  0  0  0  0  0  0
   34.8849   81.6240   49.6334 C   0  0  0  0  0  0  0  0  0  0  0  0
   37.2141   81.7796   52.1586 I   0  0  0  0  0 15  0  0  0  0  0  0
  1  2  1  0
  2  3  1  0
  3  4  2  0
  4  5  1  0
  5  6  2  0
  6  7  1  0
  7  8  2  0
  2  9  1  0
  9 10  2  0
 10 11  1  0
 11 12  2  0
 12 13  1  0
 13 14  1  0
 14 15  1  0
 14 16  1  0
 16 17  2  0
 16 18  2  0
 16 19  1  0
 19 20  1  0
 21 20  1  6
 21 22  1  0
 22 23  1  0
 23 24  1  0
 24 25  1  0
 13 26  2  0
 26 27  1  0
 27 28  2  0
 27 29  1  0
 29 30  1  0
 30 31  2  0
  8  3  1  0
 31  9  1  0
 30 12  1  0
 25 21  1  0
M  CHG  1  32  -1
M  END
$$$$
