
     RDKit          3D

 19 21  0  0  0  0  0  0  0  0999 V2000
   10.4248   98.1526   54.6425 C   0  0  0  0  0  0  0  0  0  0  0  0
   11.7489   98.2907   54.1695 O   0  0  0  0  0  0  0  0  0  0  0  0
   12.7435   98.9454   54.8553 C   0  0  0  0  0  0  0  0  0  0  0  0
   12.7866   99.0911   56.2243 C   0  0  0  0  0  0  0  0  0  0  0  0
   13.8124   99.7587   56.8443 C   0  0  0  0  0  0  0  0  0  0  0  0
   14.8268  100.3011   56.1151 C   0  0  0  0  0  0  0  0  0  0  0  0
   14.8132  100.1733   54.7498 C   0  0  0  0  0  0  0  0  0  0  0  0
   15.8222  100.7115   54.0092 C   0  0  0  0  0  0  0  0  0  0  0  0
   16.8634  101.3883   54.6309 O   0  0  0  0  0  0  0  0  0  0  0  0
   15.7670  100.5573   52.6267 C   0  0  0  0  0  0  0  0  0  0  0  0
   14.7441   99.8908   51.9989 C   0  0  0  0  0  0  0  0  0  0  0  0
   14.6791   99.7250   50.5508 C   0  0  0  0  0  0  0  0  0  0  0  0
   15.5903  100.4265   49.7521 C   0  0  0  0  0  0  0  0  0  0  0  0
   15.5974  100.3267   48.3775 C   0  0  0  0  0  0  0  0  0  0  0  0
   14.7022   99.5302   47.7673 N   0  0  0  0  0  0  0  0  0  0  0  0
   13.8213   98.8503   48.5170 C   0  0  0  0  0  0  0  0  0  0  0  0
   13.7796   98.9214   49.8954 C   0  0  0  0  0  0  0  0  0  0  0  0
   13.7805   99.3846   52.7956 N   0  0  0  0  0  0  0  0  0  0  0  0
   13.7767   99.4987   54.1223 C   0  0  0  0  0  0  0  0  0  0  0  0
  1  2  1  0
  2  3  1  0
  3  4  2  0
  4  5  1  0
  5  6  2  0
  6  7  1  0
  7  8  2  0
  8  9  1  0
  8 10  1  0
 10 11  2  0
 11 12  1  0
 12 13  2  0
 13 14  1  0
 14 15  2  0
 15 16  1  0
 16 17  2  0
 11 18  1  0
 18 19  2  0
 19  3  1  0
 19  7  1  0
 17 12  1  0
M  END
$$$$
