
     RDKit          3D

 22 23  0  0  0  0  0  0  0  0999 V2000
   42.4284   81.4530   54.8272 C   0  0  0  0  0  0  0  0  0  0  0  0
   41.2516   80.7292   54.5204 O   0  0  0  0  0  0  0  0  0  0  0  0
   40.2425   81.3710   53.8061 C   0  0  0  0  0  0  0  0  0  0  0  0
   40.5094   82.4305   52.9617 C   0  0  0  0  0  0  0  0  0  0  0  0
   39.4766   83.0446   52.2666 C   0  0  0  0  0  0  0  0  0  0  0  0
   38.1610   82.6396   52.3791 C   0  0  0  0  0  0  0  0  0  0  0  0
   37.0829   83.3198   51.6205 C   0  0  0  0  0  0  0  0  0  0  0  0
   36.1898   82.3496   50.9394 C   0  0  0  0  0  0  0  0  0  0  0  0
   36.4183   81.1261   51.1177 O   0  0  0  0  0  0  0  0  0  0  0  0
   35.1166   82.7118   50.1168 N   0  0  0  0  0  0  0  0  0  0  0  0
   34.0090   81.8745   49.7218 C   0  0  0  0  0  0  0  0  0  0  0  0
   32.8804   82.7823   49.2856 C   0  0  0  0  0  0  0  0  0  0  0  0
   31.6129   82.4737   49.9656 C   0  0  0  0  0  0  0  0  0  0  0  0
   30.8510   81.3936   49.5861 C   0  0  0  0  0  0  0  0  0  0  0  0
   29.6540   81.0801   50.2088 C   0  0  0  0  0  0  0  0  0  0  0  0
   29.2128   81.8777   51.2431 C   0  0  0  0  0  0  0  0  0  0  0  0
   29.9561   82.9731   51.6500 C   0  0  0  0  0  0  0  0  0  0  0  0
   31.1567   83.2570   50.9984 C   0  0  0  0  0  0  0  0  0  0  0  0
   37.9132   81.5788   53.2278 C   0  0  0  0  0  0  0  0  0  0  0  0
   38.9259   80.9577   53.9253 C   0  0  0  0  0  0  0  0  0  0  0  0
   38.6663   79.8924   54.7758 O   0  0  0  0  0  0  0  0  0  0  0  0
   37.3761   79.3036   54.7606 C   0  0  0  0  0  0  0  0  0  0  0  0
  1  2  1  0
  2  3  1  0
  3  4  2  0
  4  5  1  0
  5  6  2  0
  6  7  1  0
  7  8  1  0
  8  9  2  0
  8 10  1  0
 10 11  1  0
 11 12  1  0
 12 13  1  0
 13 14  2  0
 14 15  1  0
 15 16  2  0
 16 17  1  0
 17 18  2  0
  6 19  1  0
 19 20  2  0
 20 21  1  0
 21 22  1  0
 20  3  1  0
 18 13  1  0
M  END
$$$$
