
     RDKit          3D

 27 29  0  0  0  0  0  0  0  0999 V2000
   15.2832   94.9762   63.1223 C   0  0  0  0  0  0  0  0  0  0  0  0
   14.7042   93.7451   62.4503 C   0  0  0  0  0  0  0  0  0  0  0  0
   13.7113   93.0508   63.2738 C   0  0  0  0  0  0  0  0  0  0  0  0
   13.9858   92.0509   64.1388 N   0  0  0  0  0  0  0  0  0  0  0  0
   12.8901   91.6235   64.7394 N   0  0  0  0  0  0  0  0  0  0  0  0
   12.8143   90.5545   65.7353 C   0  0  0  0  0  0  0  0  0  0  0  0
   11.8696   92.3677   64.2507 C   0  0  0  0  0  0  0  0  0  0  0  0
   10.4510   92.2554   64.6252 C   0  0  0  0  0  0  0  0  0  0  0  0
    9.6966   91.1836   63.8762 C   0  0  0  0  0  0  0  0  0  0  0  0
   12.3576   93.2686   63.3313 C   0  0  0  0  0  0  0  0  0  0  0  0
   11.6573   94.2882   62.5356 C   0  0  0  0  0  0  0  0  0  0  0  0
   12.2360   94.8094   61.4186 C   0  0  0  0  0  0  0  0  0  0  0  0
   11.5617   95.7843   60.6731 C   0  0  0  0  0  0  0  0  0  0  0  0
   12.1639   96.3230   59.5227 N   0  0  0  0  0  0  0  0  0  0  0  0
   11.4830   97.2431   58.6696 C   0  0  0  0  0  0  0  0  0  0  0  0
   12.0296   98.6160   58.6553 C   0  0  0  0  0  0  0  0  0  0  0  0
   11.2283   99.7038   58.3182 C   0  0  0  0  0  0  0  0  0  0  0  0
   11.7163  100.9909   58.3215 C   0  0  0  0  0  0  0  0  0  0  0  0
   10.7875  102.0953   57.9457 C   0  0  0  0  0  0  0  0  0  0  0  0
   13.0371  101.2331   58.6663 C   0  0  0  0  0  0  0  0  0  0  0  0
   13.8291  100.1814   58.9975 C   0  0  0  0  0  0  0  0  0  0  0  0
   15.1156  100.4279   59.3323 F   0  0  0  0  0  0  0  0  0  0  0  0
   13.3340   98.8858   58.9933 C   0  0  0  0  0  0  0  0  0  0  0  0
   10.3593   96.1495   61.1192 N   0  0  0  0  0  0  0  0  0  0  0  0
    9.7657   95.6562   62.2110 C   0  0  0  0  0  0  0  0  0  0  0  0
    8.4009   96.1438   62.6201 C   0  0  0  0  0  0  0  0  0  0  0  0
   10.4290   94.7294   62.9035 N   0  0  0  0  0  0  0  0  0  0  0  0
  1  2  1  0
  2  3  1  0
  3  4  2  0
  4  5  1  0
  5  6  1  0
  5  7  1  0
  7  8  1  0
  8  9  1  0
  7 10  2  0
 10 11  1  0
 11 12  2  0
 12 13  1  0
 13 14  1  0
 14 15  1  0
 15 16  1  0
 16 17  2  0
 17 18  1  0
 18 19  1  0
 18 20  2  0
 20 21  1  0
 21 22  1  0
 21 23  2  0
 13 24  2  0
 24 25  1  0
 25 26  1  0
 25 27  2  0
 10  3  1  0
 27 11  1  0
 23 16  1  0
M  END
$$$$
