
     RDKit          3D

 34 38  0  0  0  0  0  0  0  0999 V2000
    8.8208   97.7663   59.0415 O   0  0  0  0  0  0  0  0  0  0  0  0
    9.2146   98.4694   60.1786 C   0  0  0  0  0  0  0  0  0  0  0  0
    9.2059   99.9813   59.8835 C   0  0  0  0  0  0  0  0  0  0  0  0
   10.4135  100.1309   59.1539 N   0  0  0  0  0  0  0  0  0  0  0  0
   10.1728  100.1430   57.7575 C   0  0  0  0  0  0  0  0  0  0  0  0
   11.3487  100.4763   56.9199 C   0  0  0  0  0  0  0  0  0  0  0  0
   11.2822  100.6882   55.5592 C   0  0  0  0  0  0  0  0  0  0  0  0
   12.4096  100.9892   54.8024 C   0  0  0  0  0  0  0  0  0  0  0  0
   13.6112  101.0723   55.4503 C   0  0  0  0  0  0  0  0  0  0  0  0
   14.8575  101.3788   54.7749 C   0  0  0  0  0  0  0  0  0  0  0  0
   14.9409  101.4751   53.4111 C   0  0  0  0  0  0  0  0  0  0  0  0
   16.1501  101.7702   52.7944 C   0  0  0  0  0  0  0  0  0  0  0  0
   17.2469  101.9638   53.5237 N   0  0  0  0  0  0  0  0  0  0  0  0
   17.2128  101.8802   54.8519 C   0  0  0  0  0  0  0  0  0  0  0  0
   16.0251  101.5888   55.4854 C   0  0  0  0  0  0  0  0  0  0  0  0
   13.6782  100.8643   56.7868 N   0  0  0  0  0  0  0  0  0  0  0  0
   12.5937  100.5787   57.4893 C   0  0  0  0  0  0  0  0  0  0  0  0
   11.3641   99.2372   59.6753 C   0  0  0  0  0  0  0  0  0  0  0  0
   10.6413   98.1502   60.4827 C   0  0  0  0  0  0  0  0  0  0  0  0
   11.1369   96.9008   60.0824 N   0  0  0  0  0  0  0  0  0  0  0  0
   11.5177   95.9258   61.0076 C   0  0  0  0  0  0  0  0  0  0  0  0
   11.1851   94.6575   60.4955 F   0  0  0  0  0  0  0  0  0  0  0  0
   12.9149   95.8913   61.5046 C   0  0  0  0  0  0  0  0  0  0  0  0
   13.0383   94.8298   62.5555 C   0  0  0  0  0  0  0  0  0  0  0  0
   13.0617   95.2380   63.8719 C   0  0  0  0  0  0  0  0  0  0  0  0
   13.1728   94.3491   64.9249 C   0  0  0  0  0  0  0  0  0  0  0  0
   13.2616   93.0096   64.6090 C   0  0  0  0  0  0  0  0  0  0  0  0
   13.2390   92.5922   63.2934 C   0  0  0  0  0  0  0  0  0  0  0  0
   13.1259   93.5068   62.2401 C   0  0  0  0  0  0  0  0  0  0  0  0
   13.3161   91.3030   62.7869 O   0  0  0  0  0  0  0  0  0  0  0  0
   13.0332   90.0928   63.4650 C   0  0  0  0  0  0  0  0  0  0  0  0
   13.8977   90.0647   64.7091 C   0  0  0  0  0  0  0  0  0  0  0  0
   13.2519   90.8166   65.8512 C   0  0  0  0  0  0  0  0  0  0  0  0
   13.3694   92.2026   65.7329 O   0  0  0  0  0  0  0  0  0  0  0  0
  1  2  1  0
  2  3  1  0
  3  4  1  0
  4  5  1  0
  5  6  1  0
  6  7  2  0
  7  8  1  0
  8  9  2  0
  9 10  1  0
 10 11  2  0
 11 12  1  0
 12 13  2  0
 13 14  1  0
 14 15  2  0
  9 16  1  0
 16 17  2  0
  4 18  1  0
 18 19  1  0
 19 20  1  0
 20 21  1  0
 21 22  1  0
 21 23  1  0
 23 24  1  0
 24 25  2  0
 25 26  1  0
 26 27  2  0
 27 28  1  0
 28 29  2  0
 28 30  1  0
 30 31  1  0
 31 32  1  0
 32 33  1  0
 33 34  1  0
 19  2  1  0
 29 24  1  0
 17  6  1  0
 34 27  1  0
 15 10  1  0
M  END
$$$$
