
     RDKit          3D

 27 30  0  0  0  0  0  0  0  0999 V2000
   10.6515   98.2540   60.6356 O   0  0  0  0  0  0  0  0  0  0  0  0
   11.1646   97.3165   59.9897 C   0  0  0  0  0  0  0  0  0  0  0  0
   12.0040   97.6947   58.8156 C   0  0  0  0  0  0  0  0  0  0  0  0
   11.7991   99.0712   58.3505 C   0  0  0  0  0  0  0  0  0  0  0  0
   11.1235  100.0160   59.0829 C   0  0  0  0  0  0  0  0  0  0  0  0
   10.9493  101.3114   58.6122 C   0  0  0  0  0  0  0  0  0  0  0  0
   11.4359  101.7161   57.4045 C   0  0  0  0  0  0  0  0  0  0  0  0
   12.1172  100.7731   56.6538 C   0  0  0  0  0  0  0  0  0  0  0  0
   12.5834  101.1893   55.4129 C   0  0  0  0  0  0  0  0  0  0  0  0
   13.2443  100.2932   54.6072 C   0  0  0  0  0  0  0  0  0  0  0  0
   13.4496   98.9918   55.0176 C   0  0  0  0  0  0  0  0  0  0  0  0
   12.9705   98.6087   56.2649 C   0  0  0  0  0  0  0  0  0  0  0  0
   12.2941   99.4791   57.1191 C   0  0  0  0  0  0  0  0  0  0  0  0
   10.9014   95.9991   60.4140 N   0  0  0  0  0  0  0  0  0  0  0  0
    9.9022   95.6046   61.3816 C   0  0  0  0  0  0  0  0  0  0  0  0
   10.4439   95.0014   62.6106 C   0  0  0  0  0  0  0  0  0  0  0  0
    9.7154   95.0894   63.7636 C   0  0  0  0  0  0  0  0  0  0  0  0
   10.1274   94.5227   64.9492 N   0  0  0  0  0  0  0  0  0  0  0  0
   11.2987   93.8708   64.9237 C   0  0  0  0  0  0  0  0  0  0  0  0
   12.0923   93.7418   63.8038 C   0  0  0  0  0  0  0  0  0  0  0  0
   13.3586   93.0207   63.9527 C   0  0  0  0  0  0  0  0  0  0  0  0
   14.4902   94.0345   64.1994 C   0  0  0  0  0  0  0  0  0  0  0  0
   15.7661   93.3025   64.5064 C   0  0  0  0  0  0  0  0  0  0  0  0
   16.1813   92.3775   63.3971 C   0  0  0  0  0  0  0  0  0  0  0  0
   15.0489   91.4310   63.1203 C   0  0  0  0  0  0  0  0  0  0  0  0
   13.7411   92.1065   62.8578 C   0  0  0  0  0  0  0  0  0  0  0  0
   11.6613   94.3132   62.6273 C   0  0  0  0  0  0  0  0  0  0  0  0
  1  2  2  0
  2  3  1  0
  3  4  1  0
  4  5  2  0
  5  6  1  0
  6  7  2  0
  7  8  1  0
  8  9  2  0
  9 10  1  0
 10 11  2  0
 11 12  1  0
 12 13  2  0
  2 14  1  0
 14 15  1  0
 15 16  1  0
 16 17  2  0
 17 18  1  0
 18 19  2  0
 19 20  1  0
 20 21  1  0
 21 22  1  0
 22 23  1  0
 23 24  1  0
 24 25  1  0
 25 26  1  0
 20 27  2  0
 13  4  1  0
 27 16  1  0
 13  8  1  0
 26 21  1  0
M  END
$$$$
