
     RDKit          3D

 14 15  0  0  0  0  0  0  0  0999 V2000
   16.5724   55.5004   12.8588 C   0  0  0  0  0  0  0  0  0  0  0  0
   16.3201   56.6630   13.7923 C   0  0  0  0  0  0  0  0  0  0  0  0
   15.2455   57.5000   13.1681 C   0  0  0  0  0  0  0  0  0  0  0  0
   14.3224   56.8461   12.3761 C   0  0  0  0  0  0  0  0  0  0  0  0
   13.3237   57.5929   11.7902 C   0  0  0  0  0  0  0  0  0  0  0  0
   13.2508   58.9548   11.9912 C   0  0  0  0  0  0  0  0  0  0  0  0
   14.1670   59.6076   12.7781 C   0  0  0  0  0  0  0  0  0  0  0  0
   15.1820   58.8578   13.3752 C   0  0  0  0  0  0  0  0  0  0  0  0
   14.1585   61.0509   13.0409 C   0  0  0  0  0  0  0  0  0  0  0  0
   13.0521   61.7681   12.3716 C   0  0  0  0  0  0  0  0  0  0  0  0
   12.9302   63.0432   12.5210 O   0  0  0  0  0  0  0  0  0  0  0  0
   12.1157   61.0764   11.5628 N   0  0  0  0  0  0  0  0  0  0  0  0
   12.1639   59.6763   11.3367 C   0  0  0  0  0  0  0  0  0  0  0  0
   11.3192   59.0959   10.6152 O   0  0  0  0  0  0  0  0  0  0  0  0
  1  2  1  0
  2  3  1  0
  3  4  2  0
  4  5  1  0
  5  6  2  0
  6  7  1  0
  7  8  2  0
  7  9  1  0
  9 10  1  0
 10 11  2  0
 10 12  1  0
 12 13  1  0
 13 14  2  0
  8  3  1  0
 13  6  1  0
M  END
$$$$
