
     RDKit          3D

 21 23  0  0  0  0  0  0  0  0999 V2000
   30.4972   83.8706   48.8545 C   0  0  0  0  0  0  0  0  0  0  0  0
   30.1957   82.8895   49.9807 C   0  0  0  0  0  0  0  0  0  0  0  0
   30.6192   81.5460   49.5041 C   0  0  0  0  0  0  0  0  0  0  0  0
   30.6401   81.0756   48.3875 O   0  0  0  0  0  0  0  0  0  0  0  0
   31.1329   80.6898   51.0191 S   0  0  0  0  0  0  0  0  0  0  0  0
   31.0381   82.1424   52.1409 C   0  0  0  0  0  0  0  0  0  0  0  0
   29.7429   82.0685   52.8677 C   0  0  0  0  0  0  0  0  0  0  0  0
   32.2472   82.2161   53.0247 C   0  0  0  0  0  0  0  0  0  0  0  0
   32.1403   81.2686   54.0232 O   0  0  0  0  0  0  0  0  0  0  0  0
   33.5148   82.0422   52.3289 C   0  0  0  0  0  0  0  0  0  0  0  0
   33.6088   82.3227   50.9858 C   0  0  0  0  0  0  0  0  0  0  0  0
   34.7711   82.1842   50.2549 C   0  0  0  0  0  0  0  0  0  0  0  0
   35.8935   81.7393   50.9193 C   0  0  0  0  0  0  0  0  0  0  0  0
   37.0952   81.5733   50.2646 C   0  0  0  0  0  0  0  0  0  0  0  0
   38.2350   81.1302   50.9009 C   0  0  0  0  0  0  0  0  0  0  0  0
   38.1587   80.8436   52.2506 C   0  0  0  0  0  0  0  0  0  0  0  0
   36.9670   81.0022   52.9267 C   0  0  0  0  0  0  0  0  0  0  0  0
   35.8205   81.4523   52.2673 C   0  0  0  0  0  0  0  0  0  0  0  0
   34.6498   81.5998   52.9677 C   0  0  0  0  0  0  0  0  0  0  0  0
   31.0560   83.2579   51.1421 C   0  0  0  0  0  0  0  0  0  0  0  0
   32.3716   83.3768   50.6743 O   0  0  0  0  0  0  0  0  0  0  0  0
  1  2  1  0
  2  3  1  0
  3  4  2  0
  3  5  1  0
  5  6  1  0
  6  7  1  0
  6  8  1  0
  8  9  1  0
  8 10  1  0
 10 11  2  0
 11 12  1  0
 12 13  2  0
 13 14  1  0
 14 15  2  0
 15 16  1  0
 16 17  2  0
 17 18  1  0
 18 19  2  0
  6 20  1  0
 20 21  1  0
 20  2  1  0
 19 10  1  0
 18 13  1  0
M  END
$$$$
