
     RDKit          3D

 24 26  0  0  0  0  0  0  0  0999 V2000
   13.0235   47.0417   18.1418 C   0  0  0  0  0  0  0  0  0  0  0  0
   13.1252   48.5080   17.8349 C   0  0  0  0  0  0  0  0  0  0  0  0
   14.4703   49.0697   18.2950 C   0  0  0  0  0  0  0  0  0  0  0  0
   15.2424   49.4052   17.0408 C   0  0  0  0  0  0  0  0  0  0  0  0
   16.4654   50.2288   17.3116 C   0  0  0  0  0  0  0  0  0  0  0  0
   17.1558   50.6858   16.0369 C   0  0  0  0  0  0  0  0  0  0  0  0
   16.2132   51.6143   15.3025 C   0  0  0  0  0  0  0  0  0  0  0  0
   16.6856   51.8400   13.8674 C   0  0  0  0  0  0  0  0  0  0  0  0
   16.1045   53.0525   13.3260 N   0  0  0  0  0  0  0  0  0  0  0  0
   14.9993   53.6955   13.7421 C   0  0  0  0  0  0  0  0  0  0  0  0
   14.7968   54.8141   12.9531 C   0  0  0  0  0  0  0  0  0  0  0  0
   13.7105   55.8338   13.0303 C   0  0  0  0  0  0  0  0  0  0  0  0
   14.2485   57.0089   13.6268 N   0  0  0  0  0  0  0  0  0  0  0  0
   13.6682   58.2455   13.2086 C   0  0  0  0  0  0  0  0  0  0  0  0
   13.8032   59.2105   14.3948 C   0  0  0  0  0  0  0  0  0  0  0  0
   15.2544   59.3572   14.7087 C   0  0  0  0  0  0  0  0  0  0  0  0
   16.0155   58.0795   14.7927 C   0  0  0  0  0  0  0  0  0  0  0  0
   15.6696   57.0927   13.7023 C   0  0  0  0  0  0  0  0  0  0  0  0
   15.8419   54.8111   12.0365 C   0  0  0  0  0  0  0  0  0  0  0  0
   16.1518   55.6809   11.0118 C   0  0  0  0  0  0  0  0  0  0  0  0
   17.2644   55.4988   10.1908 C   0  0  0  0  0  0  0  0  0  0  0  0
   18.0483   54.3894   10.4605 C   0  0  0  0  0  0  0  0  0  0  0  0
   17.7637   53.5093   11.4718 C   0  0  0  0  0  0  0  0  0  0  0  0
   16.6458   53.7176   12.2748 C   0  0  0  0  0  0  0  0  0  0  0  0
  1  2  1  0
  2  3  1  0
  3  4  1  0
  4  5  1  0
  5  6  1  0
  6  7  1  0
  7  8  1  0
  8  9  1  0
  9 10  1  0
 10 11  2  0
 11 12  1  0
 12 13  1  0
 13 14  1  0
 14 15  1  0
 15 16  1  0
 16 17  1  0
 17 18  1  0
 11 19  1  0
 19 20  2  0
 20 21  1  0
 21 22  2  0
 22 23  1  0
 23 24  2  0
 24  9  1  0
 18 13  1  0
 24 19  1  0
M  END
$$$$
