
     RDKit          3D

 24 26  0  0  0  0  0  0  0  0999 V2000
   13.2657   48.6239   19.8380 C   0  0  0  0  0  0  0  0  0  0  0  0
   14.2177   47.6705   19.1040 C   0  0  0  0  0  0  0  0  0  0  0  0
   13.3539   46.6146   18.4676 C   0  0  0  0  0  0  0  0  0  0  0  0
   15.0069   48.4012   18.1713 N   0  0  0  0  0  0  0  0  0  0  0  0
   14.6289   49.1659   16.9982 C   0  0  0  0  0  0  0  0  0  0  0  0
   15.5469   50.3688   17.1202 C   0  0  0  0  0  0  0  0  0  0  0  0
   15.5924   51.1697   15.8833 C   0  0  0  0  0  0  0  0  0  0  0  0
   14.6852   51.0110   15.0096 O   0  0  0  0  0  0  0  0  0  0  0  0
   16.5919   52.1206   15.5922 N   0  0  0  0  0  0  0  0  0  0  0  0
   16.4830   53.0454   14.5265 C   0  0  0  0  0  0  0  0  0  0  0  0
   15.5922   54.1017   14.6219 C   0  0  0  0  0  0  0  0  0  0  0  0
   14.8221   54.2227   15.7770 O   0  0  0  0  0  0  0  0  0  0  0  0
   15.5117   54.9551   13.6042 N   0  0  0  0  0  0  0  0  0  0  0  0
   16.2621   54.8334   12.4839 C   0  0  0  0  0  0  0  0  0  0  0  0
   16.0810   55.7872   11.5024 C   0  0  0  0  0  0  0  0  0  0  0  0
   16.8271   55.6952   10.3492 C   0  0  0  0  0  0  0  0  0  0  0  0
   17.7154   54.6503   10.2427 C   0  0  0  0  0  0  0  0  0  0  0  0
   17.8554   53.7323   11.2460 C   0  0  0  0  0  0  0  0  0  0  0  0
   17.1303   53.8151   12.3757 N   0  0  0  0  0  0  0  0  0  0  0  0
   17.2332   52.9474   13.3744 C   0  0  0  0  0  0  0  0  0  0  0  0
   18.0407   51.9854   13.2941 O   0  0  0  0  0  0  0  0  0  0  0  0
   16.8667   49.7017   17.4397 C   0  0  0  0  0  0  0  0  0  0  0  0
   16.4231   48.5229   18.2259 C   0  0  0  0  0  0  0  0  0  0  0  0
   17.2334   47.7659   18.8391 O   0  0  0  0  0  0  0  0  0  0  0  0
  1  2  1  0
  2  3  1  0
  2  4  1  0
  4  5  1  0
  5  6  1  0
  6  7  1  0
  7  8  2  0
  7  9  1  0
  9 10  1  0
 10 11  2  0
 11 12  1  0
 11 13  1  0
 13 14  2  0
 14 15  1  0
 15 16  2  0
 16 17  1  0
 17 18  2  0
 18 19  1  0
 19 20  1  0
 20 21  2  0
  6 22  1  0
 22 23  1  0
 23 24  2  0
 23  4  1  0
 20 10  1  0
 19 14  1  0
M  END
$$$$
