
     RDKit          3D

 39 43  0  0  0  0  0  0  0  0999 V2000
    8.4741   65.8898   11.6147 C   0  0  0  0  0  0  0  0  0  0  0  0
    9.7046   65.9886   12.3761 N   0  0  0  0  0  0  0  0  0  0  0  0
    9.9050   67.1217   13.2413 C   0  0  0  0  0  0  0  0  0  0  0  0
   10.7061   64.9978   12.2842 C   0  0  0  0  0  0  0  0  0  0  0  0
   11.8737   65.2233   12.6512 O   0  0  0  0  0  0  0  0  0  0  0  0
   10.3459   63.6580   11.7348 C   0  0  0  0  0  0  0  0  0  0  0  0
   11.5209   62.8150   11.6506 N   0  0  0  0  0  0  0  0  0  0  0  0
   11.7216   61.6853   12.3871 C   0  0  0  0  0  0  0  0  0  0  0  0
   12.9396   61.1736   12.0243 C   0  0  0  0  0  0  0  0  0  0  0  0
   13.5498   59.9464   12.5821 C   0  0  0  0  0  0  0  0  0  0  0  0
   12.9728   58.8435   12.4641 O   0  0  0  0  0  0  0  0  0  0  0  0
   14.7877   60.0029   13.2529 N   0  0  0  0  0  0  0  0  0  0  0  0
   15.7247   58.9573   13.4332 C   0  0  0  0  0  0  0  0  0  0  0  0
   17.0070   59.1571   13.8358 C   0  0  0  0  0  0  0  0  0  0  0  0
   17.8674   58.0553   13.9865 C   0  0  0  0  0  0  0  0  0  0  0  0
   17.4200   56.7684   13.7284 C   0  0  0  0  0  0  0  0  0  0  0  0
   16.1227   56.5542   13.3200 C   0  0  0  0  0  0  0  0  0  0  0  0
   15.6671   55.1934   13.0531 C   0  0  0  0  0  0  0  0  0  0  0  0
   15.3194   54.8320   11.7706 C   0  0  0  0  0  0  0  0  0  0  0  0
   14.8913   53.5490   11.5305 C   0  0  0  0  0  0  0  0  0  0  0  0
   14.8072   52.6238   12.5585 C   0  0  0  0  0  0  0  0  0  0  0  0
   15.1481   52.9546   13.8536 C   0  0  0  0  0  0  0  0  0  0  0  0
   15.0537   51.9645   14.9324 C   0  0  0  0  0  0  0  0  0  0  0  0
   14.4058   50.7866   14.9117 N   0  0  0  0  0  0  0  0  0  0  0  0
   14.5576   50.1662   16.0992 C   0  0  0  0  0  0  0  0  0  0  0  0
   14.1127   48.9557   16.6148 C   0  0  0  0  0  0  0  0  0  0  0  0
   14.4351   48.5757   17.9001 C   0  0  0  0  0  0  0  0  0  0  0  0
   13.9764   47.2916   18.4795 C   0  0  0  0  0  0  0  0  0  0  0  0
   15.0963   46.4980   18.6946 F   0  0  0  0  0  0  0  0  0  0  0  0
   13.3693   47.5433   19.7161 F   0  0  0  0  0  0  0  0  0  0  0  0
   13.1092   46.6205   17.6580 F   0  0  0  0  0  0  0  0  0  0  0  0
   15.2097   49.4215   18.6674 C   0  0  0  0  0  0  0  0  0  0  0  0
   15.6690   50.6261   18.1947 C   0  0  0  0  0  0  0  0  0  0  0  0
   15.3293   50.9922   16.8855 C   0  0  0  0  0  0  0  0  0  0  0  0
   15.6106   52.0690   16.1485 N   0  0  0  0  0  0  0  0  0  0  0  0
   15.5713   54.2475   14.0516 C   0  0  0  0  0  0  0  0  0  0  0  0
   15.2954   57.6322   13.1769 C   0  0  0  0  0  0  0  0  0  0  0  0
   13.4509   61.9821   11.0926 N   0  0  0  0  0  0  0  0  0  0  0  0
   12.5854   62.9816   10.8660 N   0  0  0  0  0  0  0  0  0  0  0  0
  1  2  1  0
  2  3  1  0
  2  4  1  0
  4  5  2  0
  4  6  1  0
  6  7  1  0
  7  8  1  0
  8  9  2  0
  9 10  1  0
 10 11  2  0
 10 12  1  0
 12 13  1  0
 13 14  2  0
 14 15  1  0
 15 16  2  0
 16 17  1  0
 17 18  1  0
 18 19  2  0
 19 20  1  0
 20 21  2  0
 21 22  1  0
 22 23  1  0
 23 24  2  0
 24 25  1  0
 25 26  2  0
 26 27  1  0
 27 28  1  0
 28 29  1  0
 28 30  1  0
 28 31  1  0
 27 32  2  0
 32 33  1  0
 33 34  2  0
 34 35  1  0
 22 36  2  0
 17 37  2  0
  9 38  1  0
 38 39  2  0
 39  7  1  0
 37 13  1  0
 36 18  1  0
 35 23  1  0
 34 25  1  0
M  END
$$$$
