
     RDKit          3D

 20 22  0  0  0  0  0  0  0  0999 V2000
   10.2278   95.4698   61.5270 N   0  0  0  0  0  0  0  0  0  0  0  0
   11.6755   95.5732   61.7397 C   0  0  0  0  0  0  0  0  0  0  0  0
   12.2996   94.8142   62.6563 C   0  0  0  0  0  0  0  0  0  0  0  0
   11.6324   93.7985   63.5527 C   0  0  0  0  0  0  0  0  0  0  0  0
   10.6776   92.9568   63.0656 C   0  0  0  0  0  0  0  0  0  0  0  0
   10.0832   92.0329   63.9182 C   0  0  0  0  0  0  0  0  0  0  0  0
   10.4409   91.9508   65.2489 C   0  0  0  0  0  0  0  0  0  0  0  0
   11.4074   92.8033   65.7401 C   0  0  0  0  0  0  0  0  0  0  0  0
   11.9861   93.7131   64.8806 C   0  0  0  0  0  0  0  0  0  0  0  0
   13.6368   94.9711   62.7897 N   0  0  0  0  0  0  0  0  0  0  0  0
   14.0389   96.2748   61.5398 S   0  0  0  0  0  0  0  0  0  0  0  0
   12.3932   96.4430   61.0048 C   0  0  0  0  0  0  0  0  0  0  0  0
   11.9659   97.3708   59.9582 C   0  0  0  0  0  0  0  0  0  0  0  0
   11.1134   97.0265   59.1165 O   0  0  0  0  0  0  0  0  0  0  0  0
   12.5089   98.6499   59.8927 N   0  0  0  0  0  0  0  0  0  0  0  0
   12.1553   99.5145   58.7646 C   0  0  0  0  0  0  0  0  0  0  0  0
   12.3231  100.5368   58.3141 N   0  0  0  0  0  0  0  0  0  0  0  0
   11.8234  101.0591   57.2014 C   0  0  0  0  0  0  0  0  0  0  0  0
   11.0072  100.2959   56.4959 C   0  0  0  0  0  0  0  0  0  0  0  0
   10.9717   98.7632   57.4971 S   0  0  0  0  0  0  0  0  0  0  0  0
  1  2  1  0
  2  3  1  0
  3  4  1  0
  4  5  2  0
  5  6  1  0
  6  7  2  0
  7  8  1  0
  8  9  2  0
  3 10  2  0
 10 11  1  0
 11 12  1  0
 12 13  1  0
 13 14  2  0
 13 15  1  0
 15 16  1  0
 16 17  2  0
 17 18  1  0
 18 19  2  0
 19 20  1  0
 12  2  2  0
 20 16  1  0
  9  4  1  0
M  END
$$$$
