
     RDKit          3D

 31 34  0  0  0  0  0  0  0  0999 V2000
   12.8725   49.1555   19.0638 C   0  0  0  0  0  0  0  0  0  0  0  0
   13.9594   48.8658   18.0623 C   0  0  0  0  0  0  0  0  0  0  0  0
   15.2241   49.1869   18.5562 O   0  0  0  0  0  0  0  0  0  0  0  0
   16.4040   48.9388   17.9132 C   0  0  0  0  0  0  0  0  0  0  0  0
   17.1293   47.8149   18.1729 C   0  0  0  0  0  0  0  0  0  0  0  0
   18.3365   47.5526   17.5218 C   0  0  0  0  0  0  0  0  0  0  0  0
   18.7889   48.4535   16.6051 C   0  0  0  0  0  0  0  0  0  0  0  0
   18.0335   49.5924   16.3563 C   0  0  0  0  0  0  0  0  0  0  0  0
   16.8518   49.8855   16.9691 C   0  0  0  0  0  0  0  0  0  0  0  0
   16.0580   51.0322   16.7414 N   0  0  0  0  0  0  0  0  0  0  0  0
   15.5830   51.4908   15.4994 C   0  0  0  0  0  0  0  0  0  0  0  0
   15.7505   50.7892   14.4758 O   0  0  0  0  0  0  0  0  0  0  0  0
   14.8733   52.8198   15.3874 C   0  0  0  0  0  0  0  0  0  0  0  0
   14.9785   53.6532   16.4170 F   0  0  0  0  0  0  0  0  0  0  0  0
   13.4859   52.3536   15.5114 F   0  0  0  0  0  0  0  0  0  0  0  0
   14.9710   53.3037   14.0152 C   0  0  0  0  0  0  0  0  0  0  0  0
   14.2077   52.6436   13.2229 O   0  0  0  0  0  0  0  0  0  0  0  0
   15.7262   54.3589   13.4371 N   0  0  0  0  0  0  0  0  0  0  0  0
   15.3187   55.7043   13.6145 C   0  0  0  0  0  0  0  0  0  0  0  0
   14.4915   56.0479   14.7003 C   0  0  0  0  0  0  0  0  0  0  0  0
   14.1474   57.3480   15.0091 C   0  0  0  0  0  0  0  0  0  0  0  0
   14.6230   58.3848   14.2392 C   0  0  0  0  0  0  0  0  0  0  0  0
   15.4393   58.1043   13.1681 C   0  0  0  0  0  0  0  0  0  0  0  0
   15.7457   56.8040   12.9080 C   0  0  0  0  0  0  0  0  0  0  0  0
   16.8455   56.5369   11.5297 S   0  0  0  0  0  0  0  0  0  0  0  0
   17.3197   54.8450   11.6023 C   0  0  0  0  0  0  0  0  0  0  0  0
   18.2759   54.4516   10.7347 C   0  0  0  0  0  0  0  0  0  0  0  0
   18.7114   53.1360   10.6317 C   0  0  0  0  0  0  0  0  0  0  0  0
   18.1283   52.2350   11.4536 C   0  0  0  0  0  0  0  0  0  0  0  0
   17.1344   52.6394   12.3579 C   0  0  0  0  0  0  0  0  0  0  0  0
   16.7096   53.9670   12.4493 C   0  0  0  0  0  0  0  0  0  0  0  0
  1  2  1  0
  2  3  1  0
  3  4  1  0
  4  5  2  0
  5  6  1  0
  6  7  2  0
  7  8  1  0
  8  9  2  0
  9 10  1  0
 10 11  1  0
 11 12  2  0
 11 13  1  0
 13 14  1  0
 13 15  1  0
 13 16  1  0
 16 17  2  0
 16 18  1  0
 18 19  1  0
 19 20  2  0
 20 21  1  0
 21 22  2  0
 22 23  1  0
 23 24  2  0
 24 25  1  0
 25 26  1  0
 26 27  2  0
 27 28  1  0
 28 29  2  0
 29 30  1  0
 30 31  2  0
  9  4  1  0
 31 18  1  0
 24 19  1  0
 31 26  1  0
M  END
$$$$
