
     RDKit          3D

 20 23  0  0  0  0  0  0  0  0999 V2000
   29.8751   82.9085   50.9357 C   0  0  0  0  0  0  0  0  0  0  0  0
   30.9326   81.8577   51.1618 C   0  0  0  0  0  0  0  0  0  0  0  0
   32.0585   81.9231   50.2318 C   0  0  0  0  0  0  0  0  0  0  0  0
   33.3450   82.0256   50.7054 C   0  0  0  0  0  0  0  0  0  0  0  0
   33.6364   82.0726   52.0535 C   0  0  0  0  0  0  0  0  0  0  0  0
   34.9338   82.1750   52.5064 C   0  0  0  0  0  0  0  0  0  0  0  0
   35.9979   82.2352   51.6292 C   0  0  0  0  0  0  0  0  0  0  0  0
   35.6824   82.1868   50.2898 C   0  0  0  0  0  0  0  0  0  0  0  0
   34.4032   82.0847   49.7889 C   0  0  0  0  0  0  0  0  0  0  0  0
   34.1782   82.0426   48.4627 N   0  0  0  0  0  0  0  0  0  0  0  0
   32.9176   81.9414   47.9709 C   0  0  0  0  0  0  0  0  0  0  0  0
   31.8627   81.8821   48.8578 C   0  0  0  0  0  0  0  0  0  0  0  0
   30.7582   81.7862   48.0824 N   0  0  0  0  0  0  0  0  0  0  0  0
   31.0881   81.7841   46.7702 C   0  0  0  0  0  0  0  0  0  0  0  0
   30.3226   81.7048   45.6204 C   0  0  0  0  0  0  0  0  0  0  0  0
   30.9240   81.7237   44.3587 C   0  0  0  0  0  0  0  0  0  0  0  0
   32.2938   81.8218   44.2483 C   0  0  0  0  0  0  0  0  0  0  0  0
   33.0448   81.8460   42.6702 Cl  0  0  0  0  0  0  0  0  0  0  0  0
   33.0415   81.8998   45.4177 C   0  0  0  0  0  0  0  0  0  0  0  0
   32.4597   81.8822   46.6664 C   0  0  0  0  0  0  0  0  0  0  0  0
  1  2  1  0
  2  3  1  0
  3  4  2  0
  4  5  1  0
  5  6  2  0
  6  7  1  0
  7  8  2  0
  8  9  1  0
  9 10  2  0
 10 11  1  0
 11 12  2  0
 12 13  1  0
 13 14  1  0
 14 15  2  0
 15 16  1  0
 16 17  2  0
 17 18  1  0
 17 19  1  0
 19 20  2  0
 12  3  1  0
 20 14  1  0
  9  4  1  0
 20 11  1  0
M  END
$$$$
