
     RDKit          3D

 22 24  0  0  0  0  0  0  0  0999 V2000
   14.1668   48.0559   20.0787 C   0  0  0  0  0  0  0  0  0  0  0  0
   14.4787   48.6448   18.7269 C   0  0  0  0  0  0  0  0  0  0  0  0
   13.5221   48.9676   17.7935 C   0  0  0  0  0  0  0  0  0  0  0  0
   14.1750   49.4797   16.6834 C   0  0  0  0  0  0  0  0  0  0  0  0
   15.5193   49.4561   16.9685 C   0  0  0  0  0  0  0  0  0  0  0  0
   16.6559   49.8993   16.0906 C   0  0  0  0  0  0  0  0  0  0  0  0
   16.2345   50.7818   15.0391 N   0  0  0  0  0  0  0  0  0  0  0  0
   16.4267   52.1866   15.0029 C   0  0  0  0  0  0  0  0  0  0  0  0
   16.0893   52.8533   16.0032 O   0  0  0  0  0  0  0  0  0  0  0  0
   17.0082   52.8283   13.8141 C   0  0  0  0  0  0  0  0  0  0  0  0
   18.1449   52.5349   13.1670 N   0  0  0  0  0  0  0  0  0  0  0  0
   18.2930   53.3764   12.1297 N   0  0  0  0  0  0  0  0  0  0  0  0
   17.2688   54.2255   12.0794 C   0  0  0  0  0  0  0  0  0  0  0  0
   16.4442   53.8772   13.1567 C   0  0  0  0  0  0  0  0  0  0  0  0
   15.2127   54.7177   13.2916 C   0  0  0  0  0  0  0  0  0  0  0  0
   15.6005   56.0281   13.2429 O   0  0  0  0  0  0  0  0  0  0  0  0
   16.2672   56.4263   12.1315 C   0  0  0  0  0  0  0  0  0  0  0  0
   15.3223   57.3230   11.3193 C   0  0  0  0  0  0  0  0  0  0  0  0
   17.4398   57.3330   12.5171 C   0  0  0  0  0  0  0  0  0  0  0  0
   16.7995   55.3534   11.2560 C   0  0  0  0  0  0  0  0  0  0  0  0
   15.6514   48.9485   18.2023 N   0  0  0  0  0  0  0  0  0  0  0  0
   16.9120   48.7497   18.8917 C   0  0  0  0  0  0  0  0  0  0  0  0
  1  2  1  0
  2  3  2  0
  3  4  1  0
  4  5  2  0
  5  6  1  0
  6  7  1  0
  7  8  1  0
  8  9  2  0
  8 10  1  0
 10 11  2  0
 11 12  1  0
 12 13  1  0
 13 14  2  0
 14 15  1  0
 15 16  1  0
 16 17  1  0
 17 18  1  0
 17 19  1  0
 17 20  1  0
  5 21  1  0
 21 22  1  0
 21  2  1  0
 14 10  1  0
 20 13  1  0
M  END
$$$$
