
     RDKit          3D

 35 40  0  0  0  0  0  0  0  0999 V2000
   12.0486   65.2896   14.8218 C   0  0  0  0  0  0  0  0  0  0  0  0
   11.8998   64.0450   14.0503 C   0  0  0  0  0  0  0  0  0  0  0  0
   10.7929   63.7418   13.5224 O   0  0  0  0  0  0  0  0  0  0  0  0
   12.9843   63.1409   13.8687 N   0  0  0  0  0  0  0  0  0  0  0  0
   12.8117   61.8718   13.2670 C   0  0  0  0  0  0  0  0  0  0  0  0
   11.7257   61.4624   12.5871 N   0  0  0  0  0  0  0  0  0  0  0  0
   11.8966   60.2121   12.1433 C   0  0  0  0  0  0  0  0  0  0  0  0
   11.1442   59.3205   11.4167 C   0  0  0  0  0  0  0  0  0  0  0  0
   11.6498   58.1093   11.1445 N   0  0  0  0  0  0  0  0  0  0  0  0
   12.8917   57.7176   11.5608 C   0  0  0  0  0  0  0  0  0  0  0  0
   13.3967   56.4415   11.2587 N   0  0  0  0  0  0  0  0  0  0  0  0
   14.1367   55.6887   12.2151 C   0  0  0  0  0  0  0  0  0  0  0  0
   14.4854   56.2170   13.4370 C   0  0  0  0  0  0  0  0  0  0  0  0
   15.1950   55.4947   14.3674 C   0  0  0  0  0  0  0  0  0  0  0  0
   15.5831   54.1804   14.0822 C   0  0  0  0  0  0  0  0  0  0  0  0
   16.3304   53.4891   15.0405 N   0  0  0  0  0  0  0  0  0  0  0  0
   17.6721   54.1120   15.3389 C   0  0  0  0  0  0  0  0  0  0  0  0
   16.0927   52.3290   15.8119 C   0  0  0  0  0  0  0  0  0  0  0  0
   14.9056   51.4839   15.6235 C   0  0  0  0  0  0  0  0  0  0  0  0
   14.7873   50.6291   16.9369 C   0  0  0  0  0  0  0  0  0  0  0  0
   15.9477   49.8203   16.9743 N   0  0  0  0  0  0  0  0  0  0  0  0
   16.1396   49.0116   18.0958 C   0  0  0  0  0  0  0  0  0  0  0  0
   15.0012   48.2606   18.6951 C   0  0  0  0  0  0  0  0  0  0  0  0
   15.2313   47.1791   17.8118 O   0  0  0  0  0  0  0  0  0  0  0  0
   16.5774   47.5783   17.8474 C   0  0  0  0  0  0  0  0  0  0  0  0
   16.9247   49.9902   16.0039 C   0  0  0  0  0  0  0  0  0  0  0  0
   17.3420   51.4219   15.8133 C   0  0  0  0  0  0  0  0  0  0  0  0
   15.2215   53.6845   12.8589 C   0  0  0  0  0  0  0  0  0  0  0  0
   14.5287   54.4287   11.9841 N   0  0  0  0  0  0  0  0  0  0  0  0
   13.6283   58.5724   12.2651 N   0  0  0  0  0  0  0  0  0  0  0  0
   13.1503   59.7952   12.5555 C   0  0  0  0  0  0  0  0  0  0  0  0
   13.6789   60.8484   13.2447 N   0  0  0  0  0  0  0  0  0  0  0  0
   14.9849   60.8577   13.8676 C   0  0  0  0  0  0  0  0  0  0  0  0
   15.7281   59.5071   13.9277 C   0  0  0  0  0  0  0  0  0  0  0  0
   16.1842   60.5388   12.9374 C   0  0  0  0  0  0  0  0  0  0  0  0
  1  2  1  0
  2  3  2  0
  2  4  1  0
  4  5  1  0
  5  6  2  0
  6  7  1  0
  7  8  2  0
  8  9  1  0
  9 10  2  0
 10 11  1  0
 11 12  1  0
 12 13  2  0
 13 14  1  0
 14 15  2  0
 15 16  1  0
 16 17  1  0
 16 18  1  0
 18 19  1  0
 19 20  1  0
 20 21  1  0
 21 22  1  0
 22 23  1  0
 23 24  1  0
 24 25  1  0
 21 26  1  0
 26 27  1  0
 15 28  1  0
 28 29  2  0
 10 30  1  0
 30 31  2  0
 31 32  1  0
 32 33  1  0
 33 34  1  0
 34 35  1  0
 32  5  1  0
 35 33  1  0
 31  7  1  0
 29 12  1  0
 27 18  1  0
 25 22  1  0
M  END
$$$$
