
     RDKit          3D

 23 25  0  0  0  0  0  0  0  0999 V2000
   11.0485   98.7502   58.1332 O   0  0  0  0  0  0  0  0  0  0  0  0
   12.1388   98.1375   58.2373 C   0  0  0  0  0  0  0  0  0  0  0  0
   13.1120   98.2589   57.2385 N   0  0  0  0  0  0  0  0  0  0  0  0
   13.3986   99.4814   56.5424 C   0  0  0  0  0  0  0  0  0  0  0  0
   14.8146   99.4705   56.0822 C   0  0  0  0  0  0  0  0  0  0  0  0
   14.9725   99.8453   54.6561 C   0  0  0  0  0  0  0  0  0  0  0  0
   15.8880  100.8321   54.3576 C   0  0  0  0  0  0  0  0  0  0  0  0
   16.0479  101.1907   53.0544 C   0  0  0  0  0  0  0  0  0  0  0  0
   15.3135  100.5823   52.0640 C   0  0  0  0  0  0  0  0  0  0  0  0
   14.4251   99.6257   52.3465 N   0  0  0  0  0  0  0  0  0  0  0  0
   14.2531   99.2571   53.6334 C   0  0  0  0  0  0  0  0  0  0  0  0
   12.3340   97.3057   59.4353 C   0  0  0  0  0  0  0  0  0  0  0  0
   11.4369   96.9779   60.4307 C   0  0  0  0  0  0  0  0  0  0  0  0
   12.0958   96.1636   61.3524 C   0  0  0  0  0  0  0  0  0  0  0  0
   11.4636   95.6169   62.5483 C   0  0  0  0  0  0  0  0  0  0  0  0
   10.1046   95.7131   62.7683 C   0  0  0  0  0  0  0  0  0  0  0  0
    9.4743   95.2093   63.8846 C   0  0  0  0  0  0  0  0  0  0  0  0
   10.2719   94.5784   64.8180 C   0  0  0  0  0  0  0  0  0  0  0  0
    9.7190   94.0590   65.9404 F   0  0  0  0  0  0  0  0  0  0  0  0
   11.6345   94.4516   64.6534 C   0  0  0  0  0  0  0  0  0  0  0  0
   12.2204   94.9742   63.5155 C   0  0  0  0  0  0  0  0  0  0  0  0
   13.3049   96.0329   60.9079 O   0  0  0  0  0  0  0  0  0  0  0  0
   13.4754   96.6958   59.7778 N   0  0  0  0  0  0  0  0  0  0  0  0
  1  2  2  0
  2  3  1  0
  3  4  1  0
  4  5  1  0
  5  6  1  0
  6  7  2  0
  7  8  1  0
  8  9  2  0
  9 10  1  0
 10 11  2  0
  2 12  1  0
 12 13  1  0
 13 14  2  0
 14 15  1  0
 15 16  2  0
 16 17  1  0
 17 18  2  0
 18 19  1  0
 18 20  1  0
 20 21  2  0
 14 22  1  0
 22 23  1  0
 11  6  1  0
 23 12  2  0
 21 15  1  0
M  END
$$$$
