
     RDKit          3D

 21 22  0  0  0  0  0  0  0  0999 V2000
   29.3291   82.6162   50.9206 C   0  0  0  0  0  0  0  0  0  0  0  0
   30.8078   82.4769   50.7144 C   0  0  0  0  0  0  0  0  0  0  0  0
   31.3579   82.8596   49.5121 C   0  0  0  0  0  0  0  0  0  0  0  0
   32.7387   82.7003   49.3580 C   0  0  0  0  0  0  0  0  0  0  0  0
   33.5252   82.1860   50.3529 C   0  0  0  0  0  0  0  0  0  0  0  0
   34.9388   81.9999   50.1709 C   0  0  0  0  0  0  0  0  0  0  0  0
   35.3797   81.3493   49.1951 O   0  0  0  0  0  0  0  0  0  0  0  0
   35.9060   82.5489   51.0950 N   0  0  0  0  0  0  0  0  0  0  0  0
   37.2996   82.4236   50.7236 C   0  0  0  0  0  0  0  0  0  0  0  0
   37.9915   81.2514   51.2635 C   0  0  0  0  0  0  0  0  0  0  0  0
   37.5615   80.7304   52.3149 O   0  0  0  0  0  0  0  0  0  0  0  0
   39.1252   80.6820   50.6507 N   0  0  0  0  0  0  0  0  0  0  0  0
   39.9799   79.6767   51.2495 C   0  0  0  0  0  0  0  0  0  0  0  0
   40.2154   78.4184   50.4365 C   0  0  0  0  0  0  0  0  0  0  0  0
   41.3130   79.3943   50.6427 C   0  0  0  0  0  0  0  0  0  0  0  0
   35.4174   83.1302   52.2957 C   0  0  0  0  0  0  0  0  0  0  0  0
   35.8248   82.1963   53.4507 C   0  0  0  0  0  0  0  0  0  0  0  0
   35.8995   84.5320   52.5844 C   0  0  0  0  0  0  0  0  0  0  0  0
   32.9248   81.8133   51.5568 C   0  0  0  0  0  0  0  0  0  0  0  0
   31.5536   81.9559   51.7494 C   0  0  0  0  0  0  0  0  0  0  0  0
   30.7665   81.5080   53.2417 Cl  0  0  0  0  0  0  0  0  0  0  0  0
  1  2  1  0
  2  3  2  0
  3  4  1  0
  4  5  2  0
  5  6  1  0
  6  7  2  0
  6  8  1  0
  8  9  1  0
  9 10  1  0
 10 11  2  0
 10 12  1  0
 12 13  1  0
 13 14  1  0
 14 15  1  0
  8 16  1  0
 16 17  1  0
 16 18  1  0
  5 19  1  0
 19 20  2  0
 20 21  1  0
 20  2  1  0
 15 13  1  0
M  END
$$$$
