
     RDKit          3D

 23 27  0  0  0  0  0  0  0  0999 V2000
   31.6952   81.5898   49.0285 C   0  0  0  0  0  0  0  0  0  0  0  0
   30.3802   81.7778   49.3985 C   0  0  0  0  0  0  0  0  0  0  0  0
   30.0580   82.1388   50.6963 C   0  0  0  0  0  0  0  0  0  0  0  0
   31.0584   82.3065   51.6053 C   0  0  0  0  0  0  0  0  0  0  0  0
   32.3817   82.1141   51.2202 C   0  0  0  0  0  0  0  0  0  0  0  0
   32.7268   81.7547   49.9352 C   0  0  0  0  0  0  0  0  0  0  0  0
   34.1333   81.5566   49.5693 C   0  0  0  0  0  0  0  0  0  0  0  0
   35.1408   81.9647   50.5757 C   0  0  0  0  0  0  0  0  0  0  0  0
   36.5061   81.9148   50.1801 N   0  0  0  0  0  0  0  0  0  0  0  0
   37.0462   80.6121   50.5186 C   0  0  0  0  0  0  0  0  0  0  0  0
   38.4405   80.8557   51.0401 C   0  0  2  0  0  0  0  0  0  0  0  0
   38.7881   79.9741   52.2331 C   0  0  0  0  0  0  0  0  0  0  0  0
   38.7760   80.7972   53.4057 N   0  0  0  0  0  0  0  0  0  0  0  0
   40.0340   81.1533   53.9467 C   0  0  0  0  0  0  0  0  0  0  0  0
   40.2457   82.5960   54.2649 C   0  0  0  0  0  0  0  0  0  0  0  0
   41.3299   83.0121   55.2106 C   0  0  0  0  0  0  0  0  0  0  0  0
   41.3386   83.4175   53.7332 C   0  0  0  0  0  0  0  0  0  0  0  0
   37.9847   81.9340   53.0560 C   0  0  0  0  0  0  0  0  0  0  0  0
   38.3756   82.2264   51.6391 C   0  0  2  0  0  0  0  0  0  0  0  0
   37.2808   82.8999   50.8556 C   0  0  0  0  0  0  0  0  0  0  0  0
   30.4553   82.6669   52.8260 O   0  0  0  0  0  0  0  0  0  0  0  0
   29.0781   82.3695   52.7554 C   0  0  0  0  0  0  0  0  0  0  0  0
   28.8456   82.3972   51.3640 O   0  0  0  0  0  0  0  0  0  0  0  0
  1  2  2  0
  2  3  1  0
  3  4  2  0
  4  5  1  0
  5  6  2  0
  6  7  1  0
  7  8  1  0
  8  9  1  0
  9 10  1  0
 11 10  1  1
 11 12  1  0
 12 13  1  0
 13 14  1  0
 14 15  1  0
 15 16  1  0
 16 17  1  0
 13 18  1  0
 19 18  1  1
 19 20  1  0
  4 21  1  0
 21 22  1  0
 22 23  1  0
  6  1  1  0
 20  9  1  0
 23  3  1  0
 19 11  1  0
 17 15  1  0
M  END
$$$$
