
     RDKit          3D

 26 28  0  0  0  0  0  0  0  0999 V2000
   19.5486   56.7705   13.9214 N   0  0  0  0  0  0  0  0  0  0  0  0
   18.4126   56.8645   13.6844 C   0  0  0  0  0  0  0  0  0  0  0  0
   17.0131   56.9572   13.3833 C   0  0  0  0  0  0  0  0  0  0  0  0
   16.3754   58.2005   13.3999 C   0  0  0  0  0  0  0  0  0  0  0  0
   15.0270   58.2247   13.1213 C   0  0  0  0  0  0  0  0  0  0  0  0
   14.3187   57.0797   12.8354 C   0  0  0  0  0  0  0  0  0  0  0  0
   15.0007   55.9254   12.8386 N   0  0  0  0  0  0  0  0  0  0  0  0
   16.3150   55.8152   13.0993 C   0  0  0  0  0  0  0  0  0  0  0  0
   17.0489   54.1744   13.0300 S   0  0  0  0  0  0  0  0  0  0  0  0
   15.8009   52.9134   13.3230 C   0  0  0  0  0  0  0  0  0  0  0  0
   16.2823   51.9719   14.3465 C   0  0  0  0  0  0  0  0  0  0  0  0
   17.4799   51.5000   14.3554 N   0  0  0  0  0  0  0  0  0  0  0  0
   18.5039   52.2849   13.8589 O   0  0  0  0  0  0  0  0  0  0  0  0
   15.3583   51.5425   15.4195 C   0  0  0  0  0  0  0  0  0  0  0  0
   14.4399   52.3002   15.8227 O   0  0  0  0  0  0  0  0  0  0  0  0
   15.5016   50.2557   16.0113 N   0  0  0  0  0  0  0  0  0  0  0  0
   14.7625   49.8294   17.1503 C   0  0  0  0  0  0  0  0  0  0  0  0
   13.5032   50.3138   17.4300 C   0  0  0  0  0  0  0  0  0  0  0  0
   12.7551   49.9284   18.5166 C   0  0  0  0  0  0  0  0  0  0  0  0
   13.2919   48.9954   19.3910 C   0  0  0  0  0  0  0  0  0  0  0  0
   14.5431   48.4976   19.1359 C   0  0  0  0  0  0  0  0  0  0  0  0
   15.2806   48.8959   18.0395 C   0  0  0  0  0  0  0  0  0  0  0  0
   12.8546   57.0614   12.5274 C   0  0  0  0  0  0  0  0  0  0  0  0
   12.2917   58.4383   12.5161 C   0  0  0  0  0  0  0  0  0  0  0  0
   12.9233   59.2821   13.5850 C   0  0  0  0  0  0  0  0  0  0  0  0
   14.3444   59.5530   13.1397 C   0  0  0  0  0  0  0  0  0  0  0  0
  1  2  3  0
  2  3  1  0
  3  4  2  0
  4  5  1  0
  5  6  2  0
  6  7  1  0
  7  8  2  0
  8  9  1  0
  9 10  1  0
 10 11  1  0
 11 12  2  0
 12 13  1  0
 11 14  1  0
 14 15  2  0
 14 16  1  0
 16 17  1  0
 17 18  2  0
 18 19  1  0
 19 20  2  0
 20 21  1  0
 21 22  2  0
  6 23  1  0
 23 24  1  0
 24 25  1  0
 25 26  1  0
  8  3  1  0
 22 17  1  0
 26  5  1  0
M  END
$$$$
