
     RDKit          3D

 29 32  0  0  0  0  0  0  0  0999 V2000
   29.3622   82.8101   47.1738 O   0  0  0  0  0  0  0  0  0  0  0  0
   30.5885   82.5331   47.1357 C   0  0  0  0  0  0  0  0  0  0  0  0
   31.4898   83.4069   47.7401 C   0  0  0  0  0  0  0  0  0  0  0  0
   32.8222   83.1312   47.7134 C   0  0  0  0  0  0  0  0  0  0  0  0
   33.3233   82.0139   47.1080 N   0  0  0  0  0  0  0  0  0  0  0  0
   34.7705   81.8100   47.1169 C   0  0  0  0  0  0  0  0  0  0  0  0
   35.1755   80.6273   47.9465 C   0  0  0  0  0  0  0  0  0  0  0  0
   35.7922   81.0181   49.5866 S   0  0  0  0  0  0  0  0  0  0  0  0
   34.4122   81.4900   50.6144 C   0  0  0  0  0  0  0  0  0  0  0  0
   33.1809   81.3980   50.1817 N   0  0  0  0  0  0  0  0  0  0  0  0
   32.1127   81.7587   50.9637 C   0  0  0  0  0  0  0  0  0  0  0  0
   32.4286   82.2158   52.2122 C   0  0  0  0  0  0  0  0  0  0  0  0
   33.7304   82.3085   52.6583 C   0  0  0  0  0  0  0  0  0  0  0  0
   33.9638   82.7320   53.8070 O   0  0  0  0  0  0  0  0  0  0  0  0
   34.7332   81.9413   51.8500 N   0  0  0  0  0  0  0  0  0  0  0  0
   36.1017   82.0226   52.2807 C   0  0  0  0  0  0  0  0  0  0  0  0
   36.8423   83.1776   52.0692 C   0  0  0  0  0  0  0  0  0  0  0  0
   38.1565   83.2882   52.4739 C   0  0  0  0  0  0  0  0  0  0  0  0
   38.7595   82.2242   53.1080 C   0  0  0  0  0  0  0  0  0  0  0  0
   38.0558   81.0618   53.3350 C   0  0  0  0  0  0  0  0  0  0  0  0
   38.6870   80.0372   53.9629 F   0  0  0  0  0  0  0  0  0  0  0  0
   36.7463   80.9856   52.9180 C   0  0  0  0  0  0  0  0  0  0  0  0
   36.0652   79.8459   53.1440 F   0  0  0  0  0  0  0  0  0  0  0  0
   30.8531   82.6211   52.9911 S   0  0  0  0  0  0  0  0  0  0  0  0
   29.9032   82.6709   51.4110 C   0  0  0  0  0  0  0  0  0  0  0  0
   30.7090   81.6989   50.6159 C   0  0  0  0  0  0  0  0  0  0  0  0
   32.4451   81.1921   46.5369 C   0  0  0  0  0  0  0  0  0  0  0  0
   32.8226   80.1398   45.9596 O   0  0  0  0  0  0  0  0  0  0  0  0
   31.1039   81.4527   46.5537 N   0  0  0  0  0  0  0  0  0  0  0  0
  1  2  2  0
  2  3  1  0
  3  4  2  0
  4  5  1  0
  5  6  1  0
  6  7  1  0
  7  8  1  0
  8  9  1  0
  9 10  2  0
 10 11  1  0
 11 12  2  0
 12 13  1  0
 13 14  2  0
 13 15  1  0
 15 16  1  0
 16 17  2  0
 17 18  1  0
 18 19  2  0
 19 20  1  0
 20 21  1  0
 20 22  2  0
 22 23  1  0
 12 24  1  0
 24 25  1  0
 25 26  1  0
  5 27  1  0
 27 28  2  0
 27 29  1  0
 29  2  1  0
 15  9  1  0
 22 16  1  0
 26 11  1  0
M  END
$$$$
