
     RDKit          3D

 19 21  0  0  0  0  0  0  0  0999 V2000
   -2.4846   55.9179   29.6540 N   0  0  0  0  0  0  0  0  0  0  0  0
   -2.6322   57.0298   29.9425 C   0  0  0  0  0  0  0  0  0  0  0  0
   -2.7934   58.4181   30.2911 C   0  0  0  0  0  0  0  0  0  0  0  0
   -1.7147   59.1571   30.7318 C   0  0  0  0  0  0  0  0  0  0  0  0
   -1.8780   60.4866   31.0637 C   0  0  0  0  0  0  0  0  0  0  0  0
   -3.0870   61.1202   30.9740 C   0  0  0  0  0  0  0  0  0  0  0  0
   -3.3154   62.5123   31.3089 C   0  0  0  0  0  0  0  0  0  0  0  0
   -4.4397   63.2412   30.9765 C   0  0  0  0  0  0  0  0  0  0  0  0
   -4.2494   64.5064   31.4819 C   0  0  0  0  0  0  0  0  0  0  0  0
   -5.1783   65.6217   31.3733 C   0  0  0  0  0  0  0  0  0  0  0  0
   -6.4450   65.5060   30.8620 C   0  0  0  0  0  0  0  0  0  0  0  0
   -7.2524   66.6000   30.7952 C   0  0  0  0  0  0  0  0  0  0  0  0
   -6.8461   67.8298   31.2238 N   0  0  0  0  0  0  0  0  0  0  0  0
   -5.6271   67.9705   31.7223 C   0  0  0  0  0  0  0  0  0  0  0  0
   -4.7854   66.8939   31.8061 C   0  0  0  0  0  0  0  0  0  0  0  0
   -3.0577   64.4981   32.0814 N   0  0  0  0  0  0  0  0  0  0  0  0
   -2.5196   63.3159   31.9709 O   0  0  0  0  0  0  0  0  0  0  0  0
   -4.1604   60.3679   30.5307 C   0  0  0  0  0  0  0  0  0  0  0  0
   -4.0349   59.0374   30.1903 C   0  0  0  0  0  0  0  0  0  0  0  0
  1  2  3  0
  2  3  1  0
  3  4  2  0
  4  5  1  0
  5  6  2  0
  6  7  1  0
  7  8  2  0
  8  9  1  0
  9 10  1  0
 10 11  2  0
 11 12  1  0
 12 13  2  0
 13 14  1  0
 14 15  2  0
  9 16  2  0
 16 17  1  0
  6 18  1  0
 18 19  2  0
 19  3  1  0
 17  7  1  0
 15 10  1  0
M  END
$$$$
