
     RDKit          3D

 42 46  0  0  0  0  0  0  0  0999 V2000
   12.4731   55.8459   14.7142 C   0  0  0  0  0  0  0  0  0  0  0  0
   13.7381   56.1036   15.3067 N   0  0  0  0  0  0  0  0  0  0  0  0
   14.8662   55.6898   14.5090 C   0  0  0  0  0  0  0  0  0  0  0  0
   14.5887   55.8081   13.0254 C   0  0  0  0  0  0  0  0  0  0  0  0
   15.3249   54.3162   14.8387 C   0  0  0  0  0  0  0  0  0  0  0  0
   15.1199   53.7656   15.9695 O   0  0  0  0  0  0  0  0  0  0  0  0
   16.0443   53.4832   13.8810 N   0  0  0  0  0  0  0  0  0  0  0  0
   16.8601   52.3822   14.3920 C   0  0  0  0  0  0  0  0  0  0  0  0
   16.0863   51.6258   15.4070 C   0  0  0  0  0  0  0  0  0  0  0  0
   15.1277   52.1276   15.9382 O   0  0  0  0  0  0  0  0  0  0  0  0
   16.4511   50.2485   15.7993 N   0  0  0  0  0  0  0  0  0  0  0  0
   15.4400   49.2820   15.8781 C   0  0  0  0  0  0  0  0  0  0  0  0
   15.0275   48.8310   17.2573 C   0  0  0  0  0  0  0  0  0  0  0  0
   15.9115   49.2080   18.3192 C   0  0  0  0  0  0  0  0  0  0  0  0
   17.0844   49.8703   18.0188 O   0  0  0  0  0  0  0  0  0  0  0  0
   18.1138   49.9806   18.9651 C   0  0  0  0  0  0  0  0  0  0  0  0
   15.6568   48.9399   19.6348 C   0  0  0  0  0  0  0  0  0  0  0  0
   14.5256   48.2868   19.9847 C   0  0  0  0  0  0  0  0  0  0  0  0
   13.6438   47.8984   19.0077 C   0  0  0  0  0  0  0  0  0  0  0  0
   12.4725   47.2310   19.3224 C   0  0  0  0  0  0  0  0  0  0  0  0
   11.5633   46.8319   18.3669 C   0  0  0  0  0  0  0  0  0  0  0  0
   11.8278   47.1055   17.0555 C   0  0  0  0  0  0  0  0  0  0  0  0
   13.0014   47.7751   16.7092 C   0  0  0  0  0  0  0  0  0  0  0  0
   13.9100   48.1765   17.6675 C   0  0  0  0  0  0  0  0  0  0  0  0
   17.8013   49.9992   16.2372 C   0  0  0  0  0  0  0  0  0  0  0  0
   17.9729   48.7745   16.8157 C   0  0  0  0  0  0  0  0  0  0  0  0
   19.2172   48.3216   17.1974 C   0  0  0  0  0  0  0  0  0  0  0  0
   20.3187   49.1044   17.0041 C   0  0  0  0  0  0  0  0  0  0  0  0
   20.2063   50.3461   16.4376 C   0  0  0  0  0  0  0  0  0  0  0  0
   18.9567   50.8035   16.0601 C   0  0  0  0  0  0  0  0  0  0  0  0
   18.9713   52.1885   15.7447 N   0  0  0  0  0  0  0  0  0  0  0  0
   19.9405   52.9571   16.4427 C   0  0  0  0  0  0  0  0  0  0  0  0
   19.5403   54.1818   16.6758 O   0  0  0  0  0  0  0  0  0  0  0  0
   21.2473   52.6910   16.9552 C   0  0  0  0  0  0  0  0  0  0  0  0
   21.3973   51.7469   17.9839 C   0  0  0  0  0  0  0  0  0  0  0  0
   22.6593   51.5506   18.5091 C   0  0  0  0  0  0  0  0  0  0  0  0
   23.7818   52.2223   18.0831 C   0  0  0  0  0  0  0  0  0  0  0  0
   25.3772   51.9538   18.7886 Cl  0  0  0  0  0  0  0  0  0  0  0  0
   23.5942   53.1458   17.0612 C   0  0  0  0  0  0  0  0  0  0  0  0
   22.3768   53.3885   16.4997 C   0  0  0  0  0  0  0  0  0  0  0  0
   18.0913   52.9953   14.9196 C   0  0  0  0  0  0  0  0  0  0  0  0
   17.5931   54.1938   15.7970 C   0  0  0  0  0  0  0  0  0  0  0  0
  1  2  1  0
  2  3  1  0
  3  4  1  0
  3  5  1  0
  5  6  2  0
  5  7  1  0
  7  8  1  0
  8  9  1  0
  9 10  2  0
  9 11  1  0
 11 12  1  0
 12 13  1  0
 13 14  2  0
 14 15  1  0
 15 16  1  0
 14 17  1  0
 17 18  2  0
 18 19  1  0
 19 20  2  0
 20 21  1  0
 21 22  2  0
 22 23  1  0
 23 24  2  0
 11 25  1  0
 25 26  2  0
 26 27  1  0
 27 28  2  0
 28 29  1  0
 29 30  2  0
 30 31  1  0
 31 32  1  0
 32 33  2  0
 32 34  1  0
 34 35  2  0
 35 36  1  0
 36 37  2  0
 37 38  1  0
 37 39  1  0
 39 40  2  0
 31 41  1  0
 41 42  1  0
 41  8  1  0
 24 13  1  0
 30 25  1  0
 40 34  1  0
 24 19  1  0
M  END
$$$$
