
     RDKit          3D

 34 37  0  0  0  0  0  0  0  0999 V2000
   -0.8935   60.1110   30.2647 C   0  0  0  0  0  0  0  0  0  0  0  0
   -2.1376   60.7149   30.5524 O   0  0  0  0  0  0  0  0  0  0  0  0
   -3.2332   59.8944   30.7520 C   0  0  0  0  0  0  0  0  0  0  0  0
   -3.0882   58.5417   30.9684 C   0  0  0  0  0  0  0  0  0  0  0  0
   -4.1751   57.7133   31.1689 C   0  0  0  0  0  0  0  0  0  0  0  0
   -4.0268   56.3502   31.3869 O   0  0  0  0  0  0  0  0  0  0  0  0
   -3.5637   55.5119   30.3453 C   0  0  0  0  0  0  0  0  0  0  0  0
   -5.4393   58.2683   31.1497 C   0  0  0  0  0  0  0  0  0  0  0  0
   -6.5276   57.4558   31.3476 F   0  0  0  0  0  0  0  0  0  0  0  0
   -5.5699   59.6201   30.9326 C   0  0  0  0  0  0  0  0  0  0  0  0
   -6.8991   60.2026   30.9126 N   0  0  0  0  0  0  0  0  0  0  0  0
   -7.0777   61.6074   31.0522 C   0  0  0  0  0  0  0  0  0  0  0  0
   -8.4905   62.0155   31.0567 C   0  0  0  0  0  0  0  0  0  0  0  0
   -8.7834   63.3888   31.2263 C   0  0  0  0  0  0  0  0  0  0  0  0
  -10.0482   63.7994   31.2309 N   0  0  0  0  0  0  0  0  0  0  0  0
  -11.1012   62.9830   31.0821 C   0  0  0  0  0  0  0  0  0  0  0  0
  -12.4454   63.4464   31.0905 N   0  0  0  0  0  0  0  0  0  0  0  0
  -12.6675   64.8506   30.8124 C   0  0  0  0  0  0  0  0  0  0  0  0
  -12.9077   65.6481   32.0634 C   0  0  0  0  0  0  0  0  0  0  0  0
  -11.6699   66.1913   32.4442 O   0  0  0  0  0  0  0  0  0  0  0  0
  -10.8168   61.6226   30.9142 C   0  0  0  0  0  0  0  0  0  0  0  0
   -9.5363   61.1393   30.9005 C   0  0  0  0  0  0  0  0  0  0  0  0
   -9.3397   59.7403   30.7374 N   0  0  0  0  0  0  0  0  0  0  0  0
  -10.4610   58.8713   30.5806 C   0  0  0  0  0  0  0  0  0  0  0  0
  -10.5112   57.7383   31.5808 C   0  0  1  0  0  0  0  0  0  0  0  0
  -11.0805   58.2748   32.8747 C   0  0  0  0  0  0  0  0  0  0  0  0
  -12.5525   58.3852   32.5425 C   0  0  0  0  0  0  0  0  0  0  0  0
  -12.7654   57.2586   31.5649 C   0  0  0  0  0  0  0  0  0  0  0  0
  -11.4706   56.7150   31.2329 N   0  0  0  0  0  0  0  0  0  0  0  0
  -11.2275   55.5772   32.0997 C   0  0  0  0  0  0  0  0  0  0  0  0
   -7.9904   59.3162   30.7500 C   0  0  0  0  0  0  0  0  0  0  0  0
   -7.7901   58.0736   30.6054 O   0  0  0  0  0  0  0  0  0  0  0  0
   -4.4975   60.4525   30.7323 C   0  0  0  0  0  0  0  0  0  0  0  0
   -4.6596   61.7983   30.5180 F   0  0  0  0  0  0  0  0  0  0  0  0
  1  2  1  0
  2  3  1  0
  3  4  2  0
  4  5  1  0
  5  6  1  0
  6  7  1  0
  5  8  2  0
  8  9  1  0
  8 10  1  0
 10 11  1  0
 11 12  1  0
 12 13  1  0
 13 14  2  0
 14 15  1  0
 15 16  2  0
 16 17  1  0
 17 18  1  0
 18 19  1  0
 19 20  1  0
 16 21  1  0
 21 22  2  0
 22 23  1  0
 23 24  1  0
 25 24  1  6
 25 26  1  0
 26 27  1  0
 27 28  1  0
 28 29  1  0
 29 30  1  0
 23 31  1  0
 31 32  2  0
 10 33  2  0
 33 34  1  0
 33  3  1  0
 31 11  1  0
 22 13  1  0
 29 25  1  0
M  END
$$$$
