
     RDKit          3D

 20 21  0  0  0  0  0  0  0  0999 V2000
   -2.4879   62.5157   31.5194 N   0  0  0  0  0  1  0  0  0  0  0  0
   -3.1912   61.3770   30.9786 C   0  0  0  0  0  0  0  0  0  0  0  0
   -4.5145   61.4220   30.7301 N   0  0  0  0  0  0  0  0  0  0  0  0
   -5.1540   60.6342   30.3252 C   0  0  0  0  0  0  0  0  0  0  0  0
   -6.9164   60.1152   29.7910 S   0  0  0  0  0  0  0  0  0  0  0  0
   -7.7684   59.6061   31.2814 C   0  0  0  0  0  0  0  0  0  0  0  0
   -9.1201   59.1765   30.9027 C   0  0  0  0  0  0  0  0  0  0  0  0
   -9.3989   57.8500   30.7166 C   0  0  0  0  0  0  0  0  0  0  0  0
   -8.1565   56.6353   30.9247 Cl  0  0  0  0  0  0  0  0  0  0  0  0
  -10.6696   57.4071   30.3570 C   0  0  0  0  0  0  0  0  0  0  0  0
  -11.6291   58.3684   30.1985 C   0  0  0  0  0  0  0  0  0  0  0  0
  -11.3976   59.7276   30.3755 C   0  0  0  0  0  0  0  0  0  0  0  0
  -10.1060   60.1066   30.7348 C   0  0  0  0  0  0  0  0  0  0  0  0
   -9.7868   61.8270   30.9653 Cl  0  0  0  0  0  0  0  0  0  0  0  0
   -3.9271   59.2128   30.0705 S   0  0  0  0  0  0  0  0  0  0  0  0
   -2.5930   60.2256   30.6931 C   0  0  0  0  0  0  0  0  0  0  0  0
   -1.1679   59.7249   30.8011 C   0  0  0  0  0  0  0  0  0  0  0  0
   -0.1612   60.4999   29.5639 Cl  0  0  0  0  0  0  0  0  0  0  0  0
   -0.6338   60.1425   32.4395 Cl  0  0  0  0  0  0  0  0  0  0  0  0
   -1.1564   57.9379   30.5829 Cl  0  0  0  0  0  0  0  0  0  0  0  0
  1  2  1  0
  2  3  1  0
  3  4  2  0
  4  5  1  0
  5  6  1  0
  6  7  1  0
  7  8  2  0
  8  9  1  0
  8 10  1  0
 10 11  2  0
 11 12  1  0
 12 13  2  0
 13 14  1  0
  4 15  1  0
 15 16  1  0
 16 17  1  0
 17 18  1  0
 17 19  1  0
 17 20  1  0
 16  2  2  0
 13  7  1  0
M  CHG  1   1   1
M  RAD  1   1   2
M  END
$$$$
