
     RDKit          3D

 31 33  0  0  0  0  0  0  0  0999 V2000
    9.5360   99.3447   59.2168 C   0  0  0  0  0  0  0  0  0  0  0  0
   10.8079   99.8293   59.8905 C   0  0  0  0  0  0  0  0  0  0  0  0
   10.9609  101.2941   59.8038 C   0  0  0  0  0  0  0  0  0  0  0  0
   11.9962   98.9926   59.4441 C   0  0  2  0  0  0  0  0  0  0  0  0
   12.1310   99.4133   58.0142 N   0  0  0  0  0  0  0  0  0  0  0  0
   13.4053   99.4895   57.3989 C   0  0  0  0  0  0  0  0  0  0  0  0
   14.3869   99.5244   58.1844 O   0  0  0  0  0  0  0  0  0  0  0  0
   13.6101   99.5262   56.0087 N   0  0  0  0  0  0  0  0  0  0  0  0
   14.9542   99.6687   55.4874 C   0  0  0  0  0  0  0  0  0  0  0  0
   15.0029  101.0113   54.7666 C   0  0  0  0  0  0  0  0  0  0  0  0
   13.7122  101.3872   54.3972 O   0  0  0  0  0  0  0  0  0  0  0  0
   13.0263  100.3083   53.8393 C   0  0  0  0  0  0  0  0  0  0  0  0
   12.5709   99.4321   55.0079 C   0  0  0  0  0  0  0  0  0  0  0  0
   11.6408   97.5632   59.4408 C   0  0  0  0  0  0  0  0  0  0  0  0
   11.3944   97.0041   58.3035 O   0  0  0  0  0  0  0  0  0  0  0  0
   11.5481   96.7355   60.5745 N   0  0  0  0  0  0  0  0  0  0  0  0
   10.7469   95.5338   60.5031 C   0  0  0  0  0  0  0  0  0  0  0  0
   10.6942   94.9635   61.9011 C   0  0  0  0  0  0  0  0  0  0  0  0
   12.1457   94.5805   62.2400 C   0  0  2  0  0  0  0  0  0  0  0  0
   12.5628   93.7929   61.1727 O   0  0  0  0  0  0  0  0  0  0  0  0
   12.1216   93.8389   63.5250 C   0  0  0  0  0  0  0  0  0  0  0  0
   11.4732   94.2740   64.6605 C   0  0  0  0  0  0  0  0  0  0  0  0
   11.4494   93.5793   65.8503 C   0  0  0  0  0  0  0  0  0  0  0  0
   12.1044   92.3776   65.9348 C   0  0  0  0  0  0  0  0  0  0  0  0
   12.1178   91.4334   67.4223 Cl  0  0  0  0  0  0  0  0  0  0  0  0
   12.7658   91.9078   64.8188 C   0  0  0  0  0  0  0  0  0  0  0  0
   12.7796   92.6185   63.6312 C   0  0  0  0  0  0  0  0  0  0  0  0
   12.9942   95.8317   62.3314 C   0  0  0  0  0  0  0  0  0  0  0  0
   14.2802   95.6336   61.5728 C   0  0  0  0  0  0  0  0  0  0  0  0
   13.3366   96.1511   63.7626 C   0  0  0  0  0  0  0  0  0  0  0  0
   12.2607   97.0338   61.7671 C   0  0  0  0  0  0  0  0  0  0  0  0
  1  2  1  0
  2  3  1  0
  2  4  1  0
  4  5  1  6
  5  6  1  0
  6  7  2  0
  6  8  1  0
  8  9  1  0
  9 10  1  0
 10 11  1  0
 11 12  1  0
 12 13  1  0
  4 14  1  0
 14 15  2  0
 14 16  1  0
 16 17  1  0
 17 18  1  0
 18 19  1  0
 19 20  1  6
 19 21  1  0
 21 22  2  0
 22 23  1  0
 23 24  2  0
 24 25  1  0
 24 26  1  0
 26 27  2  0
 19 28  1  0
 28 29  1  0
 28 30  1  0
 28 31  1  0
 13  8  1  0
 31 16  1  0
 27 21  1  0
M  END
$$$$
