
     RDKit          3D

 32 36  0  0  0  0  0  0  0  0999 V2000
   17.0306   48.4256   19.0298 C   0  0  0  0  0  0  0  0  0  0  0  0
   17.7506   48.9365   17.8217 C   0  0  0  0  0  0  0  0  0  0  0  0
   18.9778   49.0809   17.9157 O   0  0  0  0  0  0  0  0  0  0  0  0
   17.0209   49.2281   16.6468 N   0  0  0  0  0  0  0  0  0  0  0  0
   15.9310   50.1367   16.5320 C   0  0  0  0  0  0  0  0  0  0  0  0
   16.2376   51.3618   15.7769 C   0  0  0  0  0  0  0  0  0  0  0  0
   15.9592   52.6962   16.3626 C   0  0  0  0  0  0  0  0  0  0  0  0
   16.7418   53.5538   15.4322 N   0  0  0  0  0  0  0  0  0  0  0  0
   16.3657   54.8277   14.9658 C   0  0  0  0  0  0  0  0  0  0  0  0
   15.8378   55.7634   15.8270 C   0  0  0  0  0  0  0  0  0  0  0  0
   15.4694   57.0030   15.3470 C   0  0  0  0  0  0  0  0  0  0  0  0
   15.6069   57.3541   14.0272 C   0  0  0  0  0  0  0  0  0  0  0  0
   15.2100   58.6363   13.6083 N   0  0  0  0  0  0  0  0  0  0  0  0
   15.7697   59.9064   14.0645 C   0  0  0  0  0  0  0  0  0  0  0  0
   15.5799   60.7567   12.8183 C   0  0  0  0  0  0  0  0  0  0  0  0
   14.2971   60.2869   12.3292 N   0  0  0  0  0  0  0  0  0  0  0  0
   14.2008   58.9985   12.6700 C   0  0  0  0  0  0  0  0  0  0  0  0
   13.2783   58.0773   12.2196 C   0  0  0  0  0  0  0  0  0  0  0  0
   13.3828   56.7565   12.3512 N   0  0  0  0  0  0  0  0  0  0  0  0
   12.3044   56.1675   11.7971 C   0  0  0  0  0  0  0  0  0  0  0  0
   11.4584   57.1294   11.2817 C   0  0  0  0  0  0  0  0  0  0  0  0
   12.0182   58.3587   11.5172 C   0  0  0  0  0  0  0  0  0  0  0  0
   11.5061   59.5798   11.1692 C   0  0  0  0  0  0  0  0  0  0  0  0
   12.1497   60.7958   11.2881 C   0  0  0  0  0  0  0  0  0  0  0  0
   13.4414   61.1102   11.6604 C   0  0  0  0  0  0  0  0  0  0  0  0
   13.8807   62.2666   11.3575 O   0  0  0  0  0  0  0  0  0  0  0  0
   16.1347   56.4138   13.1756 C   0  0  0  0  0  0  0  0  0  0  0  0
   16.3037   56.6916   11.8373 F   0  0  0  0  0  0  0  0  0  0  0  0
   16.5080   55.1691   13.6404 C   0  0  0  0  0  0  0  0  0  0  0  0
   17.8845   52.7700   15.1661 C   0  0  0  0  0  0  0  0  0  0  0  0
   18.9513   53.2333   14.6623 O   0  0  0  0  0  0  0  0  0  0  0  0
   17.6658   51.4522   15.5313 O   0  0  0  0  0  0  0  0  0  0  0  0
  1  2  1  0
  2  3  2  0
  2  4  1  0
  4  5  1  0
  5  6  1  0
  6  7  1  0
  7  8  1  0
  8  9  1  0
  9 10  2  0
 10 11  1  0
 11 12  2  0
 12 13  1  0
 13 14  1  0
 14 15  1  0
 15 16  1  0
 16 17  1  0
 17 18  2  0
 18 19  1  0
 19 20  2  0
 20 21  1  0
 21 22  2  0
 22 23  1  0
 23 24  2  0
 24 25  1  0
 25 26  2  0
 12 27  1  0
 27 28  1  0
 27 29  2  0
  8 30  1  0
 30 31  2  0
 30 32  1  0
 32  6  1  0
 29  9  1  0
 17 13  1  0
 22 18  1  0
 25 16  1  0
M  END
$$$$
