
     RDKit          3D

 35 37  0  0  0  0  0  0  0  0999 V2000
   16.7606   48.9906   11.0469 C   0  0  0  0  0  0  0  0  0  0  0  0
   17.0338   49.6274   12.1513 C   0  0  0  0  0  0  0  0  0  0  0  0
   16.4547   49.4867   13.4804 C   0  0  0  0  0  0  0  0  0  0  0  0
   17.0209   50.3239   14.5196 N   0  0  0  0  0  0  0  0  0  0  0  0
   17.7158   49.7326   15.6093 C   0  0  0  0  0  0  0  0  0  0  0  0
   16.8174   49.4504   16.7789 C   0  0  0  0  0  0  0  0  0  0  0  0
   15.4598   49.3503   16.5715 C   0  0  0  0  0  0  0  0  0  0  0  0
   14.5771   49.0954   17.6206 C   0  0  0  0  0  0  0  0  0  0  0  0
   13.1205   48.9911   17.3775 C   0  0  0  0  0  0  0  0  0  0  0  0
   12.8858   48.2433   16.2261 F   0  0  0  0  0  0  0  0  0  0  0  0
   12.5638   50.2362   17.2951 F   0  0  0  0  0  0  0  0  0  0  0  0
   12.4911   48.3261   18.4082 F   0  0  0  0  0  0  0  0  0  0  0  0
   15.0616   48.9389   18.8943 C   0  0  0  0  0  0  0  0  0  0  0  0
   16.4207   49.0351   19.1275 C   0  0  0  0  0  0  0  0  0  0  0  0
   16.9936   48.8765   20.4851 C   0  0  0  0  0  0  0  0  0  0  0  0
   17.6567   47.6937   20.6573 F   0  0  0  0  0  0  0  0  0  0  0  0
   17.8931   49.9161   20.7376 F   0  0  0  0  0  0  0  0  0  0  0  0
   15.9801   48.9384   21.4424 F   0  0  0  0  0  0  0  0  0  0  0  0
   17.2717   49.2886   18.0663 C   0  0  0  0  0  0  0  0  0  0  0  0
   16.8252   51.7240   14.4028 C   0  0  0  0  0  0  0  0  0  0  0  0
   15.9204   52.2188   13.5052 C   0  0  0  0  0  0  0  0  0  0  0  0
   15.7728   53.5992   13.3988 C   0  0  0  0  0  0  0  0  0  0  0  0
   16.5348   54.4249   14.1926 C   0  0  0  0  0  0  0  0  0  0  0  0
   16.3519   55.8618   14.0700 C   0  0  0  0  0  0  0  0  0  0  0  0
   16.7336   56.6486   14.9916 O   0  0  0  0  0  0  0  0  0  0  0  0
   15.7471   56.4424   12.9337 N   0  0  0  0  0  0  0  0  0  0  0  0
   15.7418   57.8342   12.5882 C   0  0  0  0  0  0  0  0  0  0  0  0
   14.3626   58.3578   12.5247 C   0  0  0  0  0  0  0  0  0  0  0  0
   13.3745   57.6555   11.8687 C   0  0  0  0  0  0  0  0  0  0  0  0
   12.0941   58.1771   11.8206 C   0  0  0  0  0  0  0  0  0  0  0  0
   11.7675   59.3709   12.4033 C   0  0  0  0  0  0  0  0  0  0  0  0
   12.7642   60.0576   13.0534 C   0  0  0  0  0  0  0  0  0  0  0  0
   14.0515   59.5573   13.1150 C   0  0  0  0  0  0  0  0  0  0  0  0
   17.4396   53.8966   15.0895 C   0  0  0  0  0  0  0  0  0  0  0  0
   17.5699   52.5698   15.1807 N   0  0  0  0  0  0  0  0  0  0  0  0
  1  2  2  0
  2  3  1  0
  3  4  1  0
  4  5  1  0
  5  6  1  0
  6  7  2  0
  7  8  1  0
  8  9  1  0
  9 10  1  0
  9 11  1  0
  9 12  1  0
  8 13  2  0
 13 14  1  0
 14 15  1  0
 15 16  1  0
 15 17  1  0
 15 18  1  0
 14 19  2  0
  4 20  1  0
 20 21  2  0
 21 22  1  0
 22 23  2  0
 23 24  1  0
 24 25  2  0
 24 26  1  0
 26 27  1  0
 27 28  1  0
 28 29  2  0
 29 30  1  0
 30 31  2  0
 31 32  1  0
 32 33  2  0
 23 34  1  0
 34 35  2  0
 19  6  1  0
 35 20  1  0
 33 28  1  0
M  END
$$$$
