
     RDKit          3D

 22 23  0  0  0  0  0  0  0  0999 V2000
   10.2332   94.1641   62.7062 C   0  0  0  0  0  0  0  0  0  0  0  0
   11.3889   95.0417   62.3667 C   0  0  0  0  0  0  0  0  0  0  0  0
   12.4108   95.1143   63.4468 C   0  0  0  0  0  0  0  0  0  0  0  0
   13.0210   93.7980   63.6784 C   0  0  0  0  0  0  0  0  0  0  0  0
   12.5240   93.0430   64.7500 C   0  0  0  0  0  0  0  0  0  0  0  0
   13.0555   91.8139   65.0687 C   0  0  0  0  0  0  0  0  0  0  0  0
   14.0892   91.2840   64.3506 C   0  0  0  0  0  0  0  0  0  0  0  0
   14.5783   92.0242   63.2972 C   0  0  0  0  0  0  0  0  0  0  0  0
   14.0502   93.2769   62.9569 C   0  0  0  0  0  0  0  0  0  0  0  0
   14.5617   93.9385   61.8774 F   0  0  0  0  0  0  0  0  0  0  0  0
   10.9452   96.3669   61.9483 N   0  0  0  0  0  0  0  0  0  0  0  0
   11.6243   97.0156   60.8629 C   0  0  0  0  0  0  0  0  0  0  0  0
   12.7013   96.5281   60.4629 O   0  0  0  0  0  0  0  0  0  0  0  0
   11.0917   98.1635   60.2705 N   0  0  0  0  0  0  0  0  0  0  0  0
   11.6607   98.9425   59.2585 C   0  0  0  0  0  0  0  0  0  0  0  0
   12.5689   98.4669   58.3480 C   0  0  0  0  0  0  0  0  0  0  0  0
   13.0608   99.3455   57.3893 C   0  0  0  0  0  0  0  0  0  0  0  0
   12.6738  100.6616   57.3208 C   0  0  0  0  0  0  0  0  0  0  0  0
   11.7823  101.1208   58.2173 N   0  0  0  0  0  0  0  0  0  0  0  0
   11.3863  102.5076   58.1310 C   0  0  0  0  0  0  0  0  0  0  0  0
   11.3061  100.2801   59.1416 C   0  0  0  0  0  0  0  0  0  0  0  0
   10.4710  100.7639   59.9595 O   0  0  0  0  0  0  0  0  0  0  0  0
  1  2  1  0
  2  3  1  0
  3  4  1  0
  4  5  2  0
  5  6  1  0
  6  7  2  0
  7  8  1  0
  8  9  2  0
  9 10  1  0
  2 11  1  0
 11 12  1  0
 12 13  2  0
 12 14  1  0
 14 15  1  0
 15 16  2  0
 16 17  1  0
 17 18  2  0
 18 19  1  0
 19 20  1  0
 19 21  1  0
 21 22  2  0
  9  4  1  0
 21 15  1  0
M  END
$$$$
