
     RDKit          3D

 40 44  0  0  0  0  0  0  0  0999 V2000
   10.8060  101.7087   56.5740 C   0  0  0  0  0  0  0  0  0  0  0  0
   11.2833  100.6002   57.4526 C   0  0  0  0  0  0  0  0  0  0  0  0
   10.7429  100.4883   58.7054 C   0  0  0  0  0  0  0  0  0  0  0  0
   11.1498   99.4772   59.5639 C   0  0  0  0  0  0  0  0  0  0  0  0
   12.1019   98.5919   59.1365 C   0  0  0  0  0  0  0  0  0  0  0  0
   12.5401   97.5298   60.0245 C   0  0  0  0  0  0  0  0  0  0  0  0
   13.2356   96.6023   59.5332 O   0  0  0  0  0  0  0  0  0  0  0  0
   12.2300   97.4808   61.4053 N   0  0  0  0  0  0  0  0  0  0  0  0
   12.4012   96.2449   62.1000 C   0  0  0  0  0  0  0  0  0  0  0  0
   13.6775   95.7275   62.2922 C   0  0  0  0  0  0  0  0  0  0  0  0
   13.8586   94.5375   62.9596 C   0  0  0  0  0  0  0  0  0  0  0  0
   15.2212   93.9750   63.1709 C   0  0  0  0  0  0  0  0  0  0  0  0
   15.9736   94.8513   63.9058 F   0  0  0  0  0  0  0  0  0  0  0  0
   15.8209   93.7591   61.9625 F   0  0  0  0  0  0  0  0  0  0  0  0
   15.0980   92.7506   63.8086 F   0  0  0  0  0  0  0  0  0  0  0  0
   12.7546   93.8678   63.4340 C   0  0  0  0  0  0  0  0  0  0  0  0
   11.4801   94.3512   63.2611 C   0  0  0  0  0  0  0  0  0  0  0  0
   11.3325   95.5477   62.5872 C   0  0  0  0  0  0  0  0  0  0  0  0
    9.6977   96.1491   62.3777 Cl  0  0  0  0  0  0  0  0  0  0  0  0
   12.6299   98.7346   57.8568 C   0  0  0  0  0  0  0  0  0  0  0  0
   12.2602   99.7162   56.9735 C   0  0  0  0  0  0  0  0  0  0  0  0
   12.7647   99.8973   55.6818 N   0  0  0  0  0  0  0  0  0  0  0  0
   12.3536   99.2353   54.4966 C   0  0  0  0  0  0  0  0  0  0  0  0
   11.2239   98.5310   54.3621 N   0  0  0  0  0  0  0  0  0  0  0  0
   10.8396   97.9021   53.2416 C   0  0  0  0  0  0  0  0  0  0  0  0
   11.6291   97.9670   52.1568 N   0  0  0  0  0  0  0  0  0  0  0  0
   12.7893   98.6459   52.1723 C   0  0  0  0  0  0  0  0  0  0  0  0
   13.6010   98.7087   51.0516 C   0  0  0  0  0  0  0  0  0  0  0  0
   13.2714   98.0758   49.8365 N   0  0  0  0  0  0  0  0  0  0  0  0
   14.7415   99.4020   51.1453 N   0  0  0  0  0  0  0  0  0  0  0  0
   15.1144  100.0312   52.2850 C   0  0  0  0  0  0  0  0  0  0  0  0
   16.3286  100.7567   52.3548 N   0  0  0  0  0  0  0  0  0  0  0  0
   17.1929  100.8338   51.1999 C   0  0  0  0  0  0  0  0  0  0  0  0
   17.1732  102.2597   50.7097 C   0  0  0  0  0  0  0  0  0  0  0  0
   17.0502  103.1693   51.7940 N   0  0  0  0  0  0  0  0  0  0  0  0
   15.9718  104.0952   51.7374 C   0  0  0  0  0  0  0  0  0  0  0  0
   17.4501  102.7172   53.0764 C   0  0  0  0  0  0  0  0  0  0  0  0
   16.7766  101.4484   53.5424 C   0  0  0  0  0  0  0  0  0  0  0  0
   14.3087   99.9468   53.3359 N   0  0  0  0  0  0  0  0  0  0  0  0
   13.1443   99.2774   53.3467 C   0  0  0  0  0  0  0  0  0  0  0  0
  1  2  1  0
  2  3  2  0
  3  4  1  0
  4  5  2  0
  5  6  1  0
  6  7  2  0
  6  8  1  0
  8  9  1  0
  9 10  2  0
 10 11  1  0
 11 12  1  0
 12 13  1  0
 12 14  1  0
 12 15  1  0
 11 16  2  0
 16 17  1  0
 17 18  2  0
 18 19  1  0
  5 20  1  0
 20 21  2  0
 21 22  1  0
 22 23  1  0
 23 24  2  0
 24 25  1  0
 25 26  2  0
 26 27  1  0
 27 28  2  0
 28 29  1  0
 28 30  1  0
 30 31  2  0
 31 32  1  0
 32 33  1  0
 33 34  1  0
 34 35  1  0
 35 36  1  0
 35 37  1  0
 37 38  1  0
 31 39  1  0
 39 40  2  0
 21  2  1  0
 40 23  1  0
 18  9  1  0
 40 27  1  0
 38 32  1  0
M  END
$$$$
