
     RDKit          3D

 25 28  0  0  0  0  0  0  0  0999 V2000
   13.4937   61.7385   14.7157 C   0  0  0  0  0  0  0  0  0  0  0  0
   13.0391   61.3280   13.3770 C   0  0  0  0  0  0  0  0  0  0  0  0
   12.0710   61.9040   12.6610 N   0  0  0  0  0  0  0  0  0  0  0  0
   11.9125   61.2912   11.5030 N   0  0  0  0  0  0  0  0  0  0  0  0
   10.9430   61.6454   10.4585 C   0  0  0  0  0  0  0  0  0  0  0  0
   12.8075   60.2901   11.4748 C   0  0  0  0  0  0  0  0  0  0  0  0
   13.5354   60.2851   12.6434 C   0  0  0  0  0  0  0  0  0  0  0  0
   14.6007   59.4041   13.0668 C   0  0  0  0  0  0  0  0  0  0  0  0
   15.1309   58.3321   12.8279 N   0  0  0  0  0  0  0  0  0  0  0  0
   16.1071   57.7696   13.3905 N   0  0  0  0  0  0  0  0  0  0  0  0
   16.8221   56.5871   13.2616 C   0  0  0  0  0  0  0  0  0  0  0  0
   16.5881   55.5235   12.3170 C   0  0  0  0  0  0  0  0  0  0  0  0
   16.8369   55.8035   10.9585 C   0  0  0  0  0  0  0  0  0  0  0  0
   16.6422   54.8754    9.9588 C   0  0  0  0  0  0  0  0  0  0  0  0
   16.1877   53.6155   10.2678 C   0  0  0  0  0  0  0  0  0  0  0  0
   15.9413   53.3281   11.5796 C   0  0  0  0  0  0  0  0  0  0  0  0
   16.1337   54.2583   12.5947 C   0  0  0  0  0  0  0  0  0  0  0  0
   15.8085   53.9042   14.0045 C   0  0  0  0  0  0  0  0  0  0  0  0
   16.8962   54.2542   14.9828 C   0  0  0  0  0  0  0  0  0  0  0  0
   14.6385   54.8485   14.4013 C   0  0  0  0  0  0  0  0  0  0  0  0
   15.2467   52.5309   14.1833 C   0  0  0  0  0  0  0  0  0  0  0  0
   17.7581   56.6162   14.2081 N   0  0  0  0  0  0  0  0  0  0  0  0
   17.7049   57.7081   14.9275 N   0  0  0  0  0  0  0  0  0  0  0  0
   16.7012   58.3997   14.4239 C   0  0  0  0  0  0  0  0  0  0  0  0
   15.7059   59.9016   14.5093 S   0  0  0  0  0  0  0  0  0  0  0  0
  1  2  1  0
  2  3  2  0
  3  4  1  0
  4  5  1  0
  4  6  1  0
  6  7  2  0
  7  8  1  0
  8  9  2  0
  9 10  1  0
 10 11  1  0
 11 12  1  0
 12 13  2  0
 13 14  1  0
 14 15  2  0
 15 16  1  0
 16 17  2  0
 17 18  1  0
 18 19  1  0
 18 20  1  0
 18 21  1  0
 11 22  2  0
 22 23  1  0
 23 24  2  0
 24 25  1  0
  7  2  1  0
 25  8  1  0
 24 10  1  0
 17 12  1  0
M  END
$$$$
