
     RDKit          3D

 26 29  0  0  0  0  0  0  0  0999 V2000
  -15.3397   58.7085   34.1069 C   0  0  0  0  0  0  0  0  0  0  0  0
  -14.7031   59.9946   33.9391 N   0  0  0  0  0  0  0  0  0  0  0  0
  -15.6466   61.0726   33.7867 C   0  0  0  0  0  0  0  0  0  0  0  0
  -13.7652   59.8864   32.8479 C   0  0  0  0  0  0  0  0  0  0  0  0
  -13.3534   61.2721   32.4314 C   0  0  0  0  0  0  0  0  0  0  0  0
  -12.8905   61.2665   30.9635 C   0  0  0  0  0  0  0  0  0  0  0  0
  -12.4391   59.8999   30.7413 N   0  0  0  0  0  0  0  0  0  0  0  0
  -11.0350   59.5626   30.6902 C   0  0  0  0  0  0  0  0  0  0  0  0
   -9.9654   60.0707   30.8441 N   0  0  0  0  0  0  0  0  0  0  0  0
   -8.7809   59.5574   30.7636 C   0  0  0  0  0  0  0  0  0  0  0  0
   -7.4823   60.2766   30.9554 C   0  0  0  0  0  0  0  0  0  0  0  0
   -7.4795   61.5614   31.4391 C   0  0  0  0  0  0  0  0  0  0  0  0
   -6.3122   62.2676   31.6264 C   0  0  0  0  0  0  0  0  0  0  0  0
   -5.1264   61.6921   31.3305 C   0  0  0  0  0  0  0  0  0  0  0  0
   -3.6636   62.6236   31.5818 Cl  0  0  0  0  0  0  0  0  0  0  0  0
   -5.0587   60.3836   30.8338 C   0  0  0  0  0  0  0  0  0  0  0  0
   -3.8878   59.8817   30.5679 O   0  0  0  0  0  0  0  0  0  0  0  0
   -2.9540   59.0038   30.3398 C   0  0  0  0  0  0  0  0  0  0  0  0
   -1.5126   59.4557   30.4166 C   0  0  0  0  0  0  0  0  0  0  0  0
   -0.5353   59.0938   29.3866 C   0  0  0  0  0  0  0  0  0  0  0  0
   -0.5074   58.4219   30.7622 C   0  0  0  0  0  0  0  0  0  0  0  0
   -6.2810   59.7157   30.6649 C   0  0  0  0  0  0  0  0  0  0  0  0
   -8.7785   58.2085   30.4502 C   0  0  0  0  0  0  0  0  0  0  0  0
  -10.5381   57.8258   30.3015 S   0  0  0  0  0  0  0  0  0  0  0  0
  -13.4686   58.8940   30.5744 C   0  0  0  0  0  0  0  0  0  0  0  0
  -14.4403   59.1167   31.7296 C   0  0  0  0  0  0  0  0  0  0  0  0
  1  2  1  0
  2  3  1  0
  2  4  1  0
  4  5  1  0
  5  6  1  0
  6  7  1  0
  7  8  1  0
  8  9  2  0
  9 10  1  0
 10 11  1  0
 11 12  2  0
 12 13  1  0
 13 14  2  0
 14 15  1  0
 14 16  1  0
 16 17  1  0
 17 18  1  0
 18 19  1  0
 19 20  1  0
 20 21  1  0
 16 22  2  0
 10 23  2  0
 23 24  1  0
  7 25  1  0
 25 26  1  0
 26  4  1  0
 24  8  1  0
 22 11  1  0
 21 19  1  0
M  END
$$$$
