
     RDKit          3D

 35 39  0  0  0  0  0  0  0  0999 V2000
   12.9158   63.8671   12.1242 N   0  0  0  0  0  0  0  0  0  0  0  0
   12.1927   62.6810   11.8731 C   0  0  0  0  0  0  0  0  0  0  0  0
   12.4616   61.4816   12.3933 N   0  0  0  0  0  0  0  0  0  0  0  0
   11.5581   60.5735   11.9304 C   0  0  0  0  0  0  0  0  0  0  0  0
   11.5061   59.2182   12.2428 O   0  0  0  0  0  0  0  0  0  0  0  0
   12.6155   58.5645   12.7362 C   0  0  0  0  0  0  0  0  0  0  0  0
   13.2754   59.0090   13.8580 C   0  0  0  0  0  0  0  0  0  0  0  0
   14.3871   58.3170   14.3158 C   0  0  0  0  0  0  0  0  0  0  0  0
   14.8375   57.1909   13.6605 C   0  0  0  0  0  0  0  0  0  0  0  0
   15.9697   56.4875   14.1277 N   0  0  0  0  0  0  0  0  0  0  0  0
   16.3876   55.3130   13.4404 C   0  0  0  0  0  0  0  0  0  0  0  0
   15.4987   54.6127   12.9009 O   0  0  0  0  0  0  0  0  0  0  0  0
   17.8016   54.9011   13.3439 C   0  0  0  0  0  0  0  0  0  0  0  0
   17.9019   53.4507   13.6083 C   0  0  0  0  0  0  0  0  0  0  0  0
   18.1418   52.6056   12.5463 C   0  0  0  0  0  0  0  0  0  0  0  0
   18.2447   51.2265   12.7478 C   0  0  0  0  0  0  0  0  0  0  0  0
   18.1020   50.7416   14.0165 C   0  0  0  0  0  0  0  0  0  0  0  0
   17.8578   51.6064   15.0931 C   0  0  0  0  0  0  0  0  0  0  0  0
   17.7639   50.9445   16.4225 C   0  0  0  0  0  0  0  0  0  0  0  0
   17.2533   49.6997   16.3462 O   0  0  0  0  0  0  0  0  0  0  0  0
   17.1581   48.6144   17.0992 C   0  0  0  0  0  0  0  0  0  0  0  0
   18.0462   47.5754   17.0955 C   0  0  0  0  0  0  0  0  0  0  0  0
   17.9021   46.4580   17.9025 C   0  0  0  0  0  0  0  0  0  0  0  0
   16.8329   46.3788   18.7399 C   0  0  0  0  0  0  0  0  0  0  0  0
   15.8865   47.3921   18.8018 C   0  0  0  0  0  0  0  0  0  0  0  0
   14.8009   47.2906   19.6649 C   0  0  0  0  0  0  0  0  0  0  0  0
   13.9029   48.3351   19.6717 C   0  0  0  0  0  0  0  0  0  0  0  0
   14.0949   49.4265   18.8462 C   0  0  0  0  0  0  0  0  0  0  0  0
   15.1695   49.4725   18.0259 N   0  0  0  0  0  0  0  0  0  0  0  0
   16.0760   48.4695   17.9870 C   0  0  0  0  0  0  0  0  0  0  0  0
   17.7606   52.9550   14.8764 C   0  0  0  0  0  0  0  0  0  0  0  0
   14.1874   56.7358   12.5382 C   0  0  0  0  0  0  0  0  0  0  0  0
   13.0632   57.4222   12.0620 C   0  0  0  0  0  0  0  0  0  0  0  0
   10.7395   61.2506   11.1206 N   0  0  0  0  0  0  0  0  0  0  0  0
   11.1163   62.5186   11.0823 N   0  0  0  0  0  0  0  0  0  0  0  0
  1  2  1  0
  2  3  2  0
  3  4  1  0
  4  5  1  0
  5  6  1  0
  6  7  2  0
  7  8  1  0
  8  9  2  0
  9 10  1  0
 10 11  1  0
 11 12  2  0
 11 13  1  0
 13 14  1  0
 14 15  2  0
 15 16  1  0
 16 17  2  0
 17 18  1  0
 18 19  1  0
 19 20  1  0
 20 21  1  0
 21 22  2  0
 22 23  1  0
 23 24  2  0
 24 25  1  0
 25 26  2  0
 26 27  1  0
 27 28  2  0
 28 29  1  0
 29 30  2  0
 18 31  2  0
  9 32  1  0
 32 33  2  0
  4 34  2  0
 34 35  1  0
 35  2  1  0
 33  6  1  0
 31 14  1  0
 30 21  1  0
 30 25  1  0
M  END
$$$$
