
     RDKit          3D

 33 38  0  0  0  0  0  0  0  0999 V2000
   12.4637   90.7642   66.6702 C   0  0  0  0  0  0  0  0  0  0  0  0
   11.5708   91.4559   65.6600 C   0  0  2  0  0  0  0  0  0  0  0  0
   10.4056   92.0325   66.4350 C   0  0  0  0  0  0  0  0  0  0  0  0
    9.6136   90.9742   67.1495 C   0  0  0  0  0  0  0  0  0  0  0  0
    9.2552   89.8053   66.2784 C   0  0  2  0  0  0  0  0  0  0  0  0
    8.9948   88.7233   67.1301 O   0  0  0  0  0  0  0  0  0  0  0  0
   10.3163   89.3962   65.3254 C   0  0  0  0  0  0  0  0  0  0  0  0
   11.0278   90.5129   64.6374 C   0  0  1  0  0  0  0  0  0  0  0  0
   10.0884   91.2541   63.7295 C   0  0  0  0  0  0  0  0  0  0  0  0
   10.7469   92.4337   63.0768 C   0  0  0  0  0  0  0  0  0  0  0  0
   12.1944   92.5748   63.4920 C   0  0  2  0  0  0  0  0  0  0  0  0
   12.3237   92.5640   65.0154 C   0  0  2  0  0  0  0  0  0  0  0  0
   13.7858   92.5780   65.3446 C   0  0  0  0  0  0  0  0  0  0  0  0
   14.4292   93.8375   64.8134 C   0  0  0  0  0  0  0  0  0  0  0  0
   14.2674   93.8773   63.3334 C   0  0  2  0  0  0  0  0  0  0  0  0
   15.0246   92.8497   62.5797 C   0  0  0  0  0  0  0  0  0  0  0  0
   14.5775   95.2570   62.7352 C   0  0  1  0  0  0  0  0  0  0  0  0
   15.9396   95.4630   62.6280 O   0  0  0  0  0  0  0  0  0  0  0  0
   13.9014   95.0973   61.3916 C   0  0  2  0  0  0  0  0  0  0  0  0
   13.4467   96.3027   60.8013 N   0  0  0  0  0  0  0  0  0  0  0  0
   12.5685   96.0509   59.7286 C   0  0  0  0  0  0  0  0  0  0  0  0
   11.3177   96.8871   59.7757 C   0  0  0  0  0  0  0  0  0  0  0  0
   11.7085   98.2653   59.9359 N   0  0  0  0  0  0  0  0  0  0  0  0
   11.1577   99.2713   59.1325 C   0  0  0  0  0  0  0  0  0  0  0  0
   11.4586  100.5707   59.2447 N   0  0  0  0  0  0  0  0  0  0  0  0
   10.9008  101.5211   58.4429 C   0  0  0  0  0  0  0  0  0  0  0  0
    9.9804  101.1387   57.4648 C   0  0  0  0  0  0  0  0  0  0  0  0
    9.6851   99.7997   57.3662 C   0  0  0  0  0  0  0  0  0  0  0  0
   10.2706   98.9414   58.1828 N   0  0  0  0  0  0  0  0  0  0  0  0
   12.6844   98.6294   60.9374 C   0  0  0  0  0  0  0  0  0  0  0  0
   13.2183   97.4047   61.6497 C   0  0  0  0  0  0  0  0  0  0  0  0
   12.7404   94.1476   61.5949 C   0  0  0  0  0  0  0  0  0  0  0  0
   12.7673   93.8616   63.0434 C   0  0  1  0  0  0  0  0  0  0  0  0
  2  1  1  1
  2  3  1  0
  3  4  1  0
  4  5  1  0
  5  6  1  1
  5  7  1  0
  8  7  1  1
  8  9  1  0
  9 10  1  0
 11 10  1  1
 11 12  1  0
 12 13  1  6
 13 14  1  0
 14 15  1  0
 15 16  1  6
 15 17  1  0
 17 18  1  6
 17 19  1  0
 19 20  1  1
 20 21  1  0
 21 22  1  0
 22 23  1  0
 23 24  1  0
 24 25  2  0
 25 26  1  0
 26 27  2  0
 27 28  1  0
 28 29  2  0
 23 30  1  0
 30 31  1  0
 19 32  1  0
 33 32  1  6
  8  2  1  0
 33 11  1  0
 12  2  1  0
 33 15  1  0
 31 20  1  0
 29 24  1  0
M  END
$$$$
