
     RDKit          3D

 41 45  0  0  0  0  0  0  0  0999 V2000
   12.0846  102.0193   57.8011 C   0  0  0  0  0  0  0  0  0  0  0  0
   12.0391  100.7137   58.5011 C   0  0  0  0  0  0  0  0  0  0  0  0
   11.1424  100.4311   59.5014 C   0  0  0  0  0  0  0  0  0  0  0  0
   11.2098   99.1961   60.0662 C   0  0  0  0  0  0  0  0  0  0  0  0
   12.1392   98.1968   59.6926 C   0  0  0  0  0  0  0  0  0  0  0  0
   12.0980   96.9397   60.3893 C   0  0  0  0  0  0  0  0  0  0  0  0
   13.2155   96.3388   60.6043 O   0  0  0  0  0  0  0  0  0  0  0  0
   10.9669   96.2487   60.8740 N   0  0  0  0  0  0  0  0  0  0  0  0
   11.0728   95.2150   61.8450 C   0  0  0  0  0  0  0  0  0  0  0  0
   10.0539   94.7281   62.6011 C   0  0  0  0  0  0  0  0  0  0  0  0
   10.3431   93.7214   63.5382 C   0  0  0  0  0  0  0  0  0  0  0  0
   11.6098   93.2159   63.7160 C   0  0  0  0  0  0  0  0  0  0  0  0
   11.9376   92.1988   64.7814 C   0  0  0  0  0  0  0  0  0  0  0  0
   10.7644   91.6339   65.2879 N   0  0  0  0  0  0  0  0  0  0  0  0
   10.3035   90.3981   64.7674 C   0  0  0  0  0  0  0  0  0  0  0  0
   10.2558   89.3229   65.8540 C   0  0  0  0  0  0  0  0  0  0  0  0
    9.6084   89.7739   67.0238 N   0  0  0  0  0  0  0  0  0  0  0  0
   10.1292   89.2887   68.2788 C   0  0  0  0  0  0  0  0  0  0  0  0
    9.1442   91.1150   67.0295 C   0  0  0  0  0  0  0  0  0  0  0  0
   10.1055   92.1230   66.4136 C   0  0  0  0  0  0  0  0  0  0  0  0
   12.6626   93.7115   62.9419 C   0  0  0  0  0  0  0  0  0  0  0  0
   14.0604   93.1843   63.0351 C   0  0  0  0  0  0  0  0  0  0  0  0
   14.6734   93.4019   64.2284 F   0  0  0  0  0  0  0  0  0  0  0  0
   14.1240   91.8573   62.5984 F   0  0  0  0  0  0  0  0  0  0  0  0
   14.8203   93.8854   62.0878 F   0  0  0  0  0  0  0  0  0  0  0  0
   12.3621   94.6955   62.0295 C   0  0  0  0  0  0  0  0  0  0  0  0
   13.0129   98.5347   58.6855 C   0  0  0  0  0  0  0  0  0  0  0  0
   12.9978   99.7633   58.0715 C   0  0  0  0  0  0  0  0  0  0  0  0
   13.8768  100.1283   57.0105 C   0  0  0  0  0  0  0  0  0  0  0  0
   14.6652  100.4446   56.0927 C   0  0  0  0  0  0  0  0  0  0  0  0
   15.5572  100.7818   55.0393 C   0  0  0  0  0  0  0  0  0  0  0  0
   16.8107  101.3144   55.1471 C   0  0  0  0  0  0  0  0  0  0  0  0
   17.2870  101.4936   53.8758 N   0  0  0  0  0  0  0  0  0  0  0  0
   16.3488  101.0791   52.9877 C   0  0  0  0  0  0  0  0  0  0  0  0
   16.3128  101.0392   51.5873 C   0  0  0  0  0  0  0  0  0  0  0  0
   15.1636  100.5369   51.0259 C   0  0  0  0  0  0  0  0  0  0  0  0
   15.0129  100.4379   49.5822 C   0  0  0  0  0  0  0  0  0  0  0  0
   14.8782  100.3697   48.4125 N   0  0  0  0  0  0  0  0  0  0  0  0
   14.0781  100.0867   51.7810 C   0  0  0  0  0  0  0  0  0  0  0  0
   14.2040  100.1677   53.1282 N   0  0  0  0  0  0  0  0  0  0  0  0
   15.3183  100.6552   53.7071 N   0  0  0  0  0  0  0  0  0  0  0  0
  1  2  1  0
  2  3  2  0
  3  4  1  0
  4  5  2  0
  5  6  1  0
  6  7  2  0
  6  8  1  0
  8  9  1  0
  9 10  2  0
 10 11  1  0
 11 12  2  0
 12 13  1  0
 13 14  1  0
 14 15  1  0
 15 16  1  0
 16 17  1  0
 17 18  1  0
 17 19  1  0
 19 20  1  0
 12 21  1  0
 21 22  1  0
 22 23  1  0
 22 24  1  0
 22 25  1  0
 21 26  2  0
  5 27  1  0
 27 28  2  0
 28 29  1  0
 29 30  3  0
 30 31  1  0
 31 32  2  0
 32 33  1  0
 33 34  2  0
 34 35  1  0
 35 36  2  0
 36 37  1  0
 37 38  3  0
 36 39  1  0
 39 40  2  0
 40 41  1  0
 28  2  1  0
 41 31  1  0
 26  9  1  0
 41 34  1  0
 20 14  1  0
M  END
$$$$
