
     RDKit          3D

 26 28  0  0  0  0  0  0  0  0999 V2000
   36.9501   83.5549   50.5551 C   0  0  0  0  0  0  0  0  0  0  0  0
   36.4345   82.3777   51.3605 C   0  0  0  0  0  0  0  0  0  0  0  0
   35.0180   82.4618   51.5828 N   0  0  0  0  0  0  0  0  0  0  0  0
   34.1199   81.9228   50.6278 C   0  0  0  0  0  0  0  0  0  0  0  0
   34.6126   81.4010   49.5577 O   0  0  0  0  0  0  0  0  0  0  0  0
   32.6752   81.9118   50.7613 C   0  0  0  0  0  0  0  0  0  0  0  0
   31.9119   81.0568   50.0105 C   0  0  0  0  0  0  0  0  0  0  0  0
   30.5136   81.0537   50.1471 C   0  0  0  0  0  0  0  0  0  0  0  0
   29.8909   81.9060   51.0337 C   0  0  0  0  0  0  0  0  0  0  0  0
   28.5306   81.8985   51.1622 F   0  0  0  0  0  0  0  0  0  0  0  0
   30.6903   82.7528   51.7730 C   0  0  0  0  0  0  0  0  0  0  0  0
   30.0961   83.6003   52.6522 F   0  0  0  0  0  0  0  0  0  0  0  0
   32.0645   82.7694   51.6519 C   0  0  0  0  0  0  0  0  0  0  0  0
   37.2613   82.0706   52.5591 C   0  0  0  0  0  0  0  0  0  0  0  0
   36.7626   80.7413   53.0794 C   0  0  0  0  0  0  0  0  0  0  0  0
   36.0275   80.6380   54.2283 C   0  0  0  0  0  0  0  0  0  0  0  0
   35.6039   79.3956   54.6553 C   0  0  0  0  0  0  0  0  0  0  0  0
   35.9032   78.2498   53.9518 C   0  0  0  0  0  0  0  0  0  0  0  0
   36.6433   78.3426   52.7931 C   0  0  0  0  0  0  0  0  0  0  0  0
   37.0583   79.5935   52.3814 C   0  0  0  0  0  0  0  0  0  0  0  0
   38.6584   81.9241   52.3798 N   0  0  0  0  0  0  0  0  0  0  0  0
   39.4255   83.0882   52.1303 C   0  0  0  0  0  0  0  0  0  0  0  0
   40.8176   82.8889   52.7485 C   0  0  0  0  0  0  0  0  0  0  0  0
   40.7273   82.9302   54.1413 O   0  0  0  0  0  0  0  0  0  0  0  0
   39.6859   82.1210   54.5964 C   0  0  0  0  0  0  0  0  0  0  0  0
   39.2062   81.1908   53.4829 C   0  0  0  0  0  0  0  0  0  0  0  0
  1  2  1  0
  2  3  1  0
  3  4  1  0
  4  5  2  0
  4  6  1  0
  6  7  2  0
  7  8  1  0
  8  9  2  0
  9 10  1  0
  9 11  1  0
 11 12  1  0
 11 13  2  0
  2 14  1  0
 14 15  1  0
 15 16  2  0
 16 17  1  0
 17 18  2  0
 18 19  1  0
 19 20  2  0
 14 21  1  0
 21 22  1  0
 22 23  1  0
 23 24  1  0
 24 25  1  0
 25 26  1  0
 13  6  1  0
 20 15  1  0
 26 21  1  0
M  END
$$$$
