
     RDKit          3D

 20 20  0  0  0  0  0  0  0  0999 V2000
   30.4829   81.3666   52.0375 C   0  0  0  0  0  0  0  0  0  0  0  0
   30.5694   82.5680   51.1277 C   0  0  0  0  0  0  0  0  0  0  0  0
   29.3963   83.4698   51.4772 C   0  0  0  0  0  0  0  0  0  0  0  0
   30.3667   82.0959   49.7196 C   0  0  0  0  0  0  0  0  0  0  0  0
   31.6297   82.1972   48.8911 C   0  0  0  0  0  0  0  0  0  0  0  0
   32.7304   81.4941   49.5255 N   0  0  0  0  0  0  0  0  0  0  0  0
   33.6765   82.1565   50.3560 C   0  0  0  0  0  0  0  0  0  0  0  0
   33.5958   83.4099   50.4305 O   0  0  0  0  0  0  0  0  0  0  0  0
   34.7298   81.4526   51.1205 C   0  0  0  0  0  0  0  0  0  0  0  0
   34.2529   80.8885   52.3475 N   0  0  0  0  0  0  0  0  0  0  0  0
   35.9105   82.3358   51.4426 C   0  0  0  0  0  0  0  0  0  0  0  0
   36.9812   81.4580   51.9845 C   0  0  0  0  0  0  0  0  0  0  0  0
   36.8993   80.8813   53.2355 C   0  0  0  0  0  0  0  0  0  0  0  0
   37.8835   80.0652   53.7520 C   0  0  0  0  0  0  0  0  0  0  0  0
   39.0104   79.7954   53.0088 C   0  0  0  0  0  0  0  0  0  0  0  0
   39.1179   80.3602   51.7526 C   0  0  0  0  0  0  0  0  0  0  0  0
   38.1315   81.1698   51.2516 C   0  0  0  0  0  0  0  0  0  0  0  0
   31.3389   81.4288   47.5210 B   0  0  0  0  0  0  0  0  0  0  0  0
   32.5244   80.8940   46.8280 O   0  0  0  0  0  0  0  0  0  0  0  0
   30.2838   81.9667   46.6421 O   0  0  0  0  0  0  0  0  0  0  0  0
  1  2  1  0
  2  3  1  0
  2  4  1  0
  4  5  1  0
  5  6  1  0
  6  7  1  0
  7  8  2  0
  7  9  1  0
  9 10  1  0
  9 11  1  0
 11 12  1  0
 12 13  2  0
 13 14  1  0
 14 15  2  0
 15 16  1  0
 16 17  2  0
  5 18  1  0
 18 19  1  0
 18 20  1  0
 17 12  1  0
M  END
$$$$
