
     RDKit          3D

 23 25  0  0  0  0  0  0  0  0999 V2000
   15.4622   99.8946   55.3948 C   0  0  0  0  0  0  0  0  0  0  0  0
   14.4145   98.8335   55.5355 C   0  0  0  0  0  0  0  0  0  0  0  0
   13.5832   98.9911   56.7446 C   0  0  0  0  0  0  0  0  0  0  0  0
   13.3806   98.0841   57.7876 C   0  0  0  0  0  0  0  0  0  0  0  0
   12.5301   98.6252   58.7252 C   0  0  0  0  0  0  0  0  0  0  0  0
   11.9964   98.1804   59.9163 C   0  0  0  0  0  0  0  0  0  0  0  0
   12.3159   96.9343   60.4531 N   0  0  0  0  0  0  0  0  0  0  0  0
   13.7107   96.4875   60.3112 C   0  0  0  0  0  0  0  0  0  0  0  0
   14.1168   95.7446   61.5741 C   0  0  0  0  0  0  0  0  0  0  0  0
   13.1890   94.6665   61.8631 N   0  0  0  0  0  0  0  0  0  0  0  0
   13.8353   93.4305   62.1313 C   0  0  0  0  0  0  0  0  0  0  0  0
   14.1572   93.3358   63.6032 C   0  0  0  0  0  0  0  0  0  0  0  0
   13.9210   91.9222   64.1228 C   0  0  0  0  0  0  0  0  0  0  0  0
   15.5025   93.6698   63.7866 O   0  0  0  0  0  0  0  0  0  0  0  0
   12.0615   94.6428   61.0021 C   0  0  0  0  0  0  0  0  0  0  0  0
   11.4060   96.0541   61.0968 C   0  0  0  0  0  0  0  0  0  0  0  0
   11.1600   99.0361   60.5594 N   0  0  0  0  0  0  0  0  0  0  0  0
   10.8418  100.2369   60.1165 C   0  0  0  0  0  0  0  0  0  0  0  0
    9.9090  101.1532   60.8640 C   0  0  0  0  0  0  0  0  0  0  0  0
   11.3863  100.6601   58.9275 C   0  0  0  0  0  0  0  0  0  0  0  0
   11.0284  102.0295   58.4163 C   0  0  0  0  0  0  0  0  0  0  0  0
   12.2276   99.8556   58.2352 N   0  0  0  0  0  0  0  0  0  0  0  0
   12.8478  100.0557   57.0818 N   0  0  0  0  0  0  0  0  0  0  0  0
  1  2  1  0
  2  3  1  0
  3  4  1  0
  4  5  2  0
  5  6  1  0
  6  7  1  0
  7  8  1  0
  8  9  1  0
  9 10  1  0
 10 11  1  0
 11 12  1  0
 12 13  1  0
 12 14  1  0
 10 15  1  0
 15 16  1  0
  6 17  2  0
 17 18  1  0
 18 19  1  0
 18 20  2  0
 20 21  1  0
 20 22  1  0
 22 23  1  0
 23  3  2  0
 22  5  1  0
 16  7  1  0
M  END
$$$$
