
     RDKit          3D

 22 23  0  0  0  0  0  0  0  0999 V2000
   13.4703   92.1545   65.9740 C   0  0  0  0  0  0  0  0  0  0  0  0
   14.1182   93.2964   65.4866 O   0  0  0  0  0  0  0  0  0  0  0  0
   13.5523   94.0795   64.4666 C   0  0  0  0  0  0  0  0  0  0  0  0
   12.2745   94.5585   64.5698 C   0  0  0  0  0  0  0  0  0  0  0  0
   11.7138   95.3305   63.5664 C   0  0  0  0  0  0  0  0  0  0  0  0
   10.3258   95.8036   63.7714 C   0  0  0  0  0  0  0  0  0  0  0  0
   12.3893   95.6601   62.4238 C   0  0  0  0  0  0  0  0  0  0  0  0
   11.8506   96.4704   61.3172 C   0  0  0  0  0  0  0  0  0  0  0  0
   10.5083   96.2912   61.1315 O   0  0  0  0  0  0  0  0  0  0  0  0
   12.6973   96.5754   60.1059 C   0  0  0  0  0  0  0  0  0  0  0  0
   13.0858   97.8892   59.6735 N   0  0  0  0  0  0  0  0  0  0  0  0
   11.8502   98.5250   59.2267 C   0  0  0  0  0  0  0  0  0  0  0  0
   12.1753   99.9537   58.8758 C   0  0  0  0  0  0  0  0  0  0  0  0
   13.0239   99.8948   57.6994 N   0  0  0  0  0  0  0  0  0  0  0  0
   12.3084   99.6499   56.5040 C   0  0  0  0  0  0  0  0  0  0  0  0
   11.2719  100.7010   56.1997 C   0  0  0  0  0  0  0  0  0  0  0  0
   11.9148  101.9487   56.0947 O   0  0  0  0  0  0  0  0  0  0  0  0
   14.2181   99.1729   57.9018 C   0  0  0  0  0  0  0  0  0  0  0  0
   14.0675   97.8675   58.6184 C   0  0  0  0  0  0  0  0  0  0  0  0
   13.6977   95.1496   62.3553 C   0  0  0  0  0  0  0  0  0  0  0  0
   14.2626   94.3897   63.3326 C   0  0  0  0  0  0  0  0  0  0  0  0
   15.6616   93.8695   63.2081 C   0  0  0  0  0  0  0  0  0  0  0  0
  1  2  1  0
  2  3  1  0
  3  4  2  0
  4  5  1  0
  5  6  1  0
  5  7  2  0
  7  8  1  0
  8  9  1  0
  8 10  1  0
 10 11  1  0
 11 12  1  0
 12 13  1  0
 13 14  1  0
 14 15  1  0
 15 16  1  0
 16 17  1  0
 14 18  1  0
 18 19  1  0
  7 20  1  0
 20 21  2  0
 21 22  1  0
 21  3  1  0
 19 11  1  0
M  END
$$$$
