
     RDKit          3D

 25 28  0  0  0  0  0  0  0  0999 V2000
   10.2851   93.4056   63.2981 C   0  0  0  0  0  0  0  0  0  0  0  0
   11.6232   93.7582   62.9037 N   0  0  0  0  0  0  0  0  0  0  0  0
   12.0411   94.8181   62.2034 C   0  0  0  0  0  0  0  0  0  0  0  0
   11.1862   95.8880   61.6324 C   0  0  0  0  0  0  0  0  0  0  0  0
   11.9105   97.1052   61.5437 N   0  0  0  0  0  0  0  0  0  0  0  0
   13.1297   97.1179   60.8329 C   0  0  0  0  0  0  0  0  0  0  0  0
   12.9117   97.2090   59.3407 C   0  0  0  0  0  0  0  0  0  0  0  0
   11.7174   98.0668   58.9853 C   0  0  0  0  0  0  0  0  0  0  0  0
   11.8847   98.7090   57.6407 C   0  0  0  0  0  0  0  0  0  0  0  0
   11.8329  100.2136   57.6983 C   0  0  0  0  0  0  0  0  0  0  0  0
   12.4855  100.8375   56.5213 C   0  0  0  0  0  0  0  0  0  0  0  0
   13.8207  101.2479   56.5710 C   0  0  0  0  0  0  0  0  0  0  0  0
   14.4172  101.8270   55.4706 C   0  0  0  0  0  0  0  0  0  0  0  0
   13.7261  102.0202   54.2940 C   0  0  0  0  0  0  0  0  0  0  0  0
   12.4064  101.6037   54.2759 C   0  0  0  0  0  0  0  0  0  0  0  0
   11.7807  101.0270   55.3431 C   0  0  0  0  0  0  0  0  0  0  0  0
   11.4049   99.0226   60.0807 C   0  0  0  0  0  0  0  0  0  0  0  0
   11.0801   98.2564   61.3412 C   0  0  0  0  0  0  0  0  0  0  0  0
   13.4003   94.7313   62.0942 N   0  0  0  0  0  0  0  0  0  0  0  0
   13.8498   93.6282   62.7166 C   0  0  0  0  0  0  0  0  0  0  0  0
   15.1218   93.0827   62.8986 C   0  0  0  0  0  0  0  0  0  0  0  0
   15.2792   91.9078   63.5999 C   0  0  0  0  0  0  0  0  0  0  0  0
   14.1348   91.3208   64.0967 C   0  0  0  0  0  0  0  0  0  0  0  0
   12.8767   91.8296   63.9355 C   0  0  0  0  0  0  0  0  0  0  0  0
   12.7238   93.0179   63.2255 C   0  0  0  0  0  0  0  0  0  0  0  0
  1  2  1  0
  2  3  1  0
  3  4  1  0
  4  5  1  0
  5  6  1  0
  6  7  1  0
  7  8  1  0
  8  9  1  0
  9 10  1  0
 10 11  1  0
 11 12  2  0
 12 13  1  0
 13 14  2  0
 14 15  1  0
 15 16  2  0
  8 17  1  0
 17 18  1  0
  3 19  2  0
 19 20  1  0
 20 21  2  0
 21 22  1  0
 22 23  2  0
 23 24  1  0
 24 25  2  0
 25  2  1  0
 18  5  1  0
 25 20  1  0
 16 11  1  0
M  END
$$$$
