
     RDKit          3D

 20 22  0  0  0  0  0  0  0  0999 V2000
   12.2576   99.0615   55.6697 C   0  0  0  0  0  0  0  0  0  0  0  0
   11.6101   99.5704   56.9432 C   0  0  0  0  0  0  0  0  0  0  0  0
   12.1680   98.8277   58.0524 N   0  0  0  0  0  0  0  0  0  0  0  0
   11.6291   97.5943   58.5876 C   0  0  0  0  0  0  0  0  0  0  0  0
   12.0121   97.6681   60.0398 C   0  0  0  0  0  0  0  0  0  0  0  0
   11.9519   96.3519   60.7114 C   0  0  0  0  0  0  0  0  0  0  0  0
   12.9004   95.5482   60.5191 O   0  0  0  0  0  0  0  0  0  0  0  0
   10.9053   95.9398   61.5498 N   0  0  0  0  0  0  0  0  0  0  0  0
   11.0814   95.7012   62.9735 C   0  0  0  0  0  0  0  0  0  0  0  0
   11.5123   94.2672   63.1514 C   0  0  0  0  0  0  0  0  0  0  0  0
   10.7015   93.2021   63.2340 N   0  0  0  0  0  0  0  0  0  0  0  0
   11.4045   92.0946   63.3879 N   0  0  0  0  0  0  0  0  0  0  0  0
   12.6924   92.4811   63.4018 C   0  0  0  0  0  0  0  0  0  0  0  0
   12.7693   93.8073   63.2579 N   0  0  0  0  0  0  0  0  0  0  0  0
   14.1462   94.2712   63.2689 C   0  0  0  0  0  0  0  0  0  0  0  0
   14.9313   92.9942   63.0837 C   0  0  0  0  0  0  0  0  0  0  0  0
   14.0465   91.8715   63.5292 C   0  0  0  0  0  0  0  0  0  0  0  0
   13.4559   98.1724   59.9454 C   0  0  0  0  0  0  0  0  0  0  0  0
   13.3207   99.1384   58.8220 C   0  0  0  0  0  0  0  0  0  0  0  0
   14.1062  100.0856   58.5884 O   0  0  0  0  0  0  0  0  0  0  0  0
  1  2  1  0
  2  3  1  0
  3  4  1  0
  4  5  1  0
  5  6  1  0
  6  7  2  0
  6  8  1  0
  8  9  1  0
  9 10  1  0
 10 11  2  0
 11 12  1  0
 12 13  2  0
 13 14  1  0
 14 15  1  0
 15 16  1  0
 16 17  1  0
  5 18  1  0
 18 19  1  0
 19 20  2  0
 19  3  1  0
 14 10  1  0
 17 13  1  0
M  END
$$$$
