
     RDKit          3D

 20 21  0  0  0  0  0  0  0  0999 V2000
   13.1512   49.5790   18.0178 C   0  0  0  0  0  0  0  0  0  0  0  0
   14.6028   49.6807   18.3549 C   0  0  0  0  0  0  0  0  0  0  0  0
   15.3898   50.1547   17.1389 C   0  0  0  0  0  0  0  0  0  0  0  0
   15.0158   51.0832   16.2709 N   0  0  0  0  0  0  0  0  0  0  0  0
   15.5434   51.4995   15.3312 C   0  0  0  0  0  0  0  0  0  0  0  0
   15.3991   52.4995   14.1891 C   0  0  0  0  0  0  0  0  0  0  0  0
   15.0822   53.8617   14.7368 C   0  0  0  0  0  0  0  0  0  0  0  0
   14.5986   54.7643   13.7453 N   0  0  0  0  0  0  0  0  0  0  0  0
   14.8068   56.1550   13.7625 C   0  0  0  0  0  0  0  0  0  0  0  0
   15.6947   56.5833   14.5265 O   0  0  0  0  0  0  0  0  0  0  0  0
   14.0687   57.1291   12.9604 C   0  0  0  0  0  0  0  0  0  0  0  0
   14.3603   58.4850   13.0754 C   0  0  0  0  0  0  0  0  0  0  0  0
   13.6948   59.4395   12.3436 C   0  0  0  0  0  0  0  0  0  0  0  0
   12.7109   59.0101   11.4750 C   0  0  0  0  0  0  0  0  0  0  0  0
   12.0869   59.8791   10.7919 O   0  0  0  0  0  0  0  0  0  0  0  0
   12.4511   57.7013   11.3843 N   0  0  0  0  0  0  0  0  0  0  0  0
   13.0862   56.7468   12.0878 C   0  0  0  0  0  0  0  0  0  0  0  0
   17.1452   50.4759   15.3465 S   0  0  0  0  0  0  0  0  0  0  0  0
   16.6064   49.5943   16.8782 C   0  0  0  0  0  0  0  0  0  0  0  0
   17.4166   48.5467   17.5507 C   0  0  0  0  0  0  0  0  0  0  0  0
  1  2  1  0
  2  3  1  0
  3  4  1  0
  4  5  2  0
  5  6  1  0
  6  7  1  0
  7  8  1  0
  8  9  1  0
  9 10  2  0
  9 11  1  0
 11 12  1  0
 12 13  2  0
 13 14  1  0
 14 15  2  0
 14 16  1  0
 16 17  1  0
  5 18  1  0
 18 19  1  0
 19 20  1  0
 19  3  2  0
 17 11  2  0
M  END
$$$$
