
     RDKit          3D

 28 30  0  0  0  0  0  0  0  0999 V2000
  -12.3999   54.6329   28.9448 C   0  0  0  0  0  0  0  0  0  0  0  0
  -11.3166   55.6585   29.3718 C   0  0  0  0  0  0  0  0  0  0  0  0
  -10.3999   56.5045   29.7223 C   0  0  0  0  0  0  0  0  0  0  0  0
   -9.4357   57.3988   30.1001 C   0  0  0  0  0  0  0  0  0  0  0  0
   -8.3531   57.8510   30.2399 N   0  0  0  0  0  0  0  0  0  0  0  0
   -7.9855   58.9965   30.7208 C   0  0  0  0  0  0  0  0  0  0  0  0
   -6.4879   59.3398   30.6720 C   0  0  0  0  0  0  0  0  0  0  0  0
   -5.5355   58.4509   30.9709 C   0  0  0  0  0  0  0  0  0  0  0  0
   -4.1992   58.7181   30.8262 C   0  0  0  0  0  0  0  0  0  0  0  0
   -3.8194   59.9815   30.3394 C   0  0  0  0  0  0  0  0  0  0  0  0
   -2.4055   60.3140   30.1185 C   0  0  0  0  0  0  0  0  0  0  0  0
   -1.9022   59.7518   28.9451 F   0  0  0  0  0  0  0  0  0  0  0  0
   -1.5816   59.9082   31.1745 F   0  0  0  0  0  0  0  0  0  0  0  0
   -2.2660   61.6718   29.9700 F   0  0  0  0  0  0  0  0  0  0  0  0
   -4.7692   60.8933   30.0314 C   0  0  0  0  0  0  0  0  0  0  0  0
   -6.1388   60.6056   30.1874 C   0  0  0  0  0  0  0  0  0  0  0  0
   -8.8016   59.8922   31.1492 C   0  0  0  0  0  0  0  0  0  0  0  0
   -8.8329   61.2316   31.7282 C   0  0  0  0  0  0  0  0  0  0  0  0
   -7.6140   61.9051   31.6870 C   0  0  0  0  0  0  0  0  0  0  0  0
   -7.5325   63.1796   32.1910 C   0  0  0  0  0  0  0  0  0  0  0  0
   -8.5916   63.8066   32.7210 C   0  0  0  0  0  0  0  0  0  0  0  0
   -8.4104   65.2138   33.2402 C   0  0  0  0  0  0  0  0  0  0  0  0
   -8.3940   65.1568   34.7117 C   0  0  0  0  0  0  0  0  0  0  0  0
   -7.1508   64.9479   35.3445 N   0  0  0  0  0  0  0  0  0  0  0  0
   -9.4190   65.2766   35.3965 O   0  0  0  0  0  0  0  0  0  0  0  0
   -9.8349   63.1758   32.7864 C   0  0  0  0  0  0  0  0  0  0  0  0
   -9.9015   61.8581   32.2635 C   0  0  0  0  0  0  0  0  0  0  0  0
  -10.3997   59.0178   30.8421 S   0  0  0  0  0  0  0  0  0  0  0  0
  1  2  1  0
  2  3  3  0
  3  4  1  0
  4  5  2  0
  5  6  1  0
  6  7  1  0
  7  8  2  0
  8  9  1  0
  9 10  2  0
 10 11  1  0
 11 12  1  0
 11 13  1  0
 11 14  1  0
 10 15  1  0
 15 16  2  0
  6 17  2  0
 17 18  1  0
 18 19  2  0
 19 20  1  0
 20 21  2  0
 21 22  1  0
 22 23  1  0
 23 24  1  0
 23 25  2  0
 21 26  1  0
 26 27  2  0
 17 28  1  0
 28  4  1  0
 16  7  1  0
 27 18  1  0
M  END
$$$$
