
     RDKit          3D

 18 19  0  0  0  0  0  0  0  0999 V2000
   38.2496   81.6799   47.6655 C   0  0  0  0  0  0  0  0  0  0  0  0
   36.8547   82.1278   48.0042 C   0  0  0  0  0  0  0  0  0  0  0  0
   36.4499   81.7413   49.3016 O   0  0  0  0  0  0  0  0  0  0  0  0
   35.1921   82.0297   49.7019 N   0  0  0  0  0  0  0  0  0  0  0  0
   34.8334   81.9251   50.9701 C   0  0  0  0  0  0  0  0  0  0  0  0
   33.3931   81.8605   51.1730 C   0  0  0  0  0  0  0  0  0  0  0  0
   32.8343   81.9689   52.4407 C   0  0  0  0  0  0  0  0  0  0  0  0
   31.4767   81.9218   52.6843 C   0  0  0  0  0  0  0  0  0  0  0  0
   30.6048   81.7596   51.6345 C   0  0  0  0  0  0  0  0  0  0  0  0
   29.1398   81.7071   51.8831 C   0  0  0  0  0  0  0  0  0  0  0  0
   31.0993   81.6470   50.3595 C   0  0  0  0  0  0  0  0  0  0  0  0
   32.4813   81.7003   50.1597 C   0  0  0  0  0  0  0  0  0  0  0  0
   35.8731   81.9022   51.9689 C   0  0  0  0  0  0  0  0  0  0  0  0
   36.4426   80.5715   52.3600 C   0  0  0  0  0  0  0  0  0  0  0  0
   37.1721   80.8128   53.6996 C   0  0  0  0  0  0  0  0  0  0  0  0
   38.2603   81.7651   53.4281 N   0  0  0  0  0  0  0  0  0  0  0  0
   37.6895   83.0593   53.1033 C   0  0  0  0  0  0  0  0  0  0  0  0
   36.9959   82.8990   51.7444 C   0  0  0  0  0  0  0  0  0  0  0  0
  1  2  1  0
  2  3  1  0
  3  4  1  0
  4  5  2  3
  5  6  1  0
  6  7  2  0
  7  8  1  0
  8  9  2  0
  9 10  1  0
  9 11  1  0
 11 12  2  0
  5 13  1  0
 13 14  1  0
 14 15  1  0
 15 16  1  0
 16 17  1  0
 17 18  1  0
 12  6  1  0
 18 13  1  0
M  END
$$$$
