
     RDKit          3D

 23 25  0  0  0  0  0  0  0  0999 V2000
   17.3850  100.7384   51.5830 N   0  0  0  0  0  0  0  0  0  0  0  0
   16.5782  100.9807   52.7093 C   0  0  0  0  0  0  0  0  0  0  0  0
   16.5235  102.1416   53.1718 O   0  0  0  0  0  0  0  0  0  0  0  0
   15.8273   99.8591   53.3031 C   0  0  0  0  0  0  0  0  0  0  0  0
   15.0717  100.2466   54.5189 C   0  0  0  0  0  0  0  0  0  0  0  0
   15.5157  100.9792   55.5597 N   0  0  0  0  0  0  0  0  0  0  0  0
   14.5598  101.1041   56.4321 O   0  0  0  0  0  0  0  0  0  0  0  0
   13.4830  100.4859   56.0270 C   0  0  0  0  0  0  0  0  0  0  0  0
   12.1778  100.3696   56.6944 C   0  0  0  0  0  0  0  0  0  0  0  0
   11.0334  100.7690   55.7507 C   0  0  0  0  0  0  0  0  0  0  0  0
   11.0273   99.9163   54.6600 O   0  0  0  0  0  0  0  0  0  0  0  0
   10.6542   98.6258   54.9757 C   0  0  0  0  0  0  0  0  0  0  0  0
   10.8542   98.3195   56.4094 C   0  0  0  0  0  0  0  0  0  0  0  0
   10.1430   97.4200   56.9890 O   0  0  0  0  0  0  0  0  0  0  0  0
   11.8433   99.0356   57.1292 N   0  0  0  0  0  0  0  0  0  0  0  0
   12.4884   98.4617   58.2578 C   0  0  0  0  0  0  0  0  0  0  0  0
   11.9568   98.8540   59.5691 C   0  0  0  0  0  0  0  0  0  0  0  0
   10.9894   99.8289   59.6456 C   0  0  0  0  0  0  0  0  0  0  0  0
   10.4982  100.1894   60.8988 C   0  0  0  0  0  0  0  0  0  0  0  0
   10.9339   99.6162   62.0749 C   0  0  0  0  0  0  0  0  0  0  0  0
   11.9045   98.6410   61.9716 C   0  0  0  0  0  0  0  0  0  0  0  0
   12.4146   98.2603   60.7270 C   0  0  0  0  0  0  0  0  0  0  0  0
   13.7844   99.9444   54.8336 N   0  0  0  0  0  0  0  0  0  0  0  0
  1  2  1  0
  2  3  2  0
  2  4  1  0
  4  5  1  0
  5  6  2  0
  6  7  1  0
  7  8  1  0
  8  9  1  0
  9 10  1  0
 10 11  1  0
 11 12  1  0
 12 13  1  0
 13 14  2  0
 13 15  1  0
 15 16  1  0
 16 17  1  0
 17 18  2  0
 18 19  1  0
 19 20  2  0
 20 21  1  0
 21 22  2  0
  8 23  2  0
 23  5  1  0
 15  9  1  0
 22 17  1  0
M  END
$$$$
