
     RDKit          3D

 18 19  0  0  0  0  0  0  0  0999 V2000
   40.0843   81.8273   48.5973 C   0  0  0  0  0  0  0  0  0  0  0  0
   40.2866   81.2808   49.8473 O   0  0  0  0  0  0  0  0  0  0  0  0
   39.1811   80.5340   50.1972 C   0  0  0  0  0  0  0  0  0  0  0  0
   38.2367   81.2777   51.0709 C   0  0  0  0  0  0  0  0  0  0  0  0
   38.5577   81.8837   52.2305 N   0  0  0  0  0  0  0  0  0  0  0  0
   37.4865   82.4386   52.7318 O   0  0  0  0  0  0  0  0  0  0  0  0
   36.4567   82.2294   51.9545 C   0  0  0  0  0  0  0  0  0  0  0  0
   35.0461   82.6745   52.1305 C   0  0  0  0  0  0  0  0  0  0  0  0
   34.2540   82.3028   51.0194 O   0  0  0  0  0  0  0  0  0  0  0  0
   32.8964   82.1629   51.0718 C   0  0  0  0  0  0  0  0  0  0  0  0
   32.1503   81.7575   49.9892 C   0  0  0  0  0  0  0  0  0  0  0  0
   30.7657   81.6242   50.0743 C   0  0  0  0  0  0  0  0  0  0  0  0
   30.1217   81.9060   51.2777 C   0  0  0  0  0  0  0  0  0  0  0  0
   28.3814   81.7349   51.3730 Cl  0  0  0  0  0  0  0  0  0  0  0  0
   30.8522   82.3080   52.3549 C   0  0  0  0  0  0  0  0  0  0  0  0
   30.0685   82.6689   53.8801 Cl  0  0  0  0  0  0  0  0  0  0  0  0
   32.2414   82.4362   52.2506 C   0  0  0  0  0  0  0  0  0  0  0  0
   36.9195   81.5073   50.9198 N   0  0  0  0  0  0  0  0  0  0  0  0
  1  2  1  0
  2  3  1  0
  3  4  1  0
  4  5  2  0
  5  6  1  0
  6  7  1  0
  7  8  1  0
  8  9  1  0
  9 10  1  0
 10 11  2  0
 11 12  1  0
 12 13  2  0
 13 14  1  0
 13 15  1  0
 15 16  1  0
 15 17  2  0
  7 18  2  0
 18  4  1  0
 17 10  1  0
M  END
$$$$
