
     RDKit          3D

 19 20  0  0  0  0  0  0  0  0999 V2000
   16.7034   51.7627   14.0017 C   0  0  0  0  0  0  0  0  0  0  0  0
   17.2108   52.6016   12.9828 O   0  0  0  0  0  0  0  0  0  0  0  0
   16.8394   53.9358   12.9950 C   0  0  0  0  0  0  0  0  0  0  0  0
   16.0022   54.4401   13.9651 C   0  0  0  0  0  0  0  0  0  0  0  0
   15.6155   55.7691   14.0007 C   0  0  0  0  0  0  0  0  0  0  0  0
   16.0756   56.6488   13.0317 C   0  0  0  0  0  0  0  0  0  0  0  0
   15.5646   58.5028   13.0417 Se  0  0  0  0  0  2  0  0  0  0  0  0
   13.8786   58.7276   12.1603 C   0  0  0  0  0  0  0  0  0  0  0  0
   13.2684   57.7329   11.5079 N   0  0  0  0  0  0  0  0  0  0  0  0
   12.0841   57.9328   10.9017 C   0  0  0  0  0  0  0  0  0  0  0  0
   11.4471   59.1254   10.9119 N   0  0  0  0  0  0  0  0  0  0  0  0
   11.9925   60.1830   11.5473 C   0  0  0  0  0  0  0  0  0  0  0  0
   11.6757   61.4589   11.7639 N   0  0  0  0  0  0  0  0  0  0  0  0
   12.6528   62.0457   12.4969 C   0  0  0  0  0  0  0  0  0  0  0  0
   13.6113   61.1379   12.7563 N   0  0  0  0  0  0  0  0  0  0  0  0
   13.2770   59.9629   12.2036 C   0  0  0  0  0  0  0  0  0  0  0  0
   16.9148   56.1578   12.0537 C   0  0  0  0  0  0  0  0  0  0  0  0
   17.2884   54.8295   12.0362 C   0  0  0  0  0  0  0  0  0  0  0  0
   15.1758   55.9390   13.0280 I   0  0  0  0  0  0  0  0  0  0  0  0
  1  2  1  0
  2  3  1  0
  3  4  2  0
  4  5  1  0
  5  6  2  0
  6  7  1  0
  7  8  1  0
  8  9  1  0
  9 10  1  0
 10 11  2  0
 11 12  1  0
 12 13  2  0
 13 14  1  0
 14 15  2  0
 15 16  1  0
  6 17  1  0
 17 18  2  0
 18  3  1  0
 16  8  2  0
 16 12  1  0
M  END
$$$$
