
     RDKit          3D

 26 28  0  0  0  0  0  0  0  0999 V2000
   16.1886   51.4674   14.4573 C   0  0  0  0  0  0  0  0  0  0  0  0
   16.9337   52.5989   14.9711 N   0  0  0  0  0  0  0  0  0  0  0  0
   16.8694   52.6831   16.4252 C   0  0  0  0  0  0  0  0  0  0  0  0
   16.3480   53.8007   14.4491 C   0  0  0  0  0  0  0  0  0  0  0  0
   15.4224   53.4878   13.2860 C   0  0  0  0  0  0  0  0  0  0  0  0
   14.0535   54.0825   13.5431 C   0  0  0  0  0  0  0  0  0  0  0  0
   13.5363   55.0919   12.1469 S   0  0  0  0  0  0  0  0  0  0  0  0
   13.7505   56.8224   12.3995 C   0  0  0  0  0  0  0  0  0  0  0  0
   14.8300   57.2584   13.1002 N   0  0  0  0  0  0  0  0  0  0  0  0
   15.0483   58.5695   13.3286 C   0  0  0  0  0  0  0  0  0  0  0  0
   16.2687   58.9452   14.1168 C   0  0  0  0  0  0  0  0  0  0  0  0
   16.2369   58.1554   15.4085 C   0  0  0  0  0  0  0  0  0  0  0  0
   17.5175   58.4946   13.3682 C   0  0  0  0  0  0  0  0  0  0  0  0
   16.3213   60.4233   14.3599 C   0  0  0  0  0  0  0  0  0  0  0  0
   14.1976   59.5112   12.8674 N   0  0  0  0  0  0  0  0  0  0  0  0
   13.0943   59.1515   12.1573 C   0  0  0  0  0  0  0  0  0  0  0  0
   12.9014   57.8049   11.9421 C   0  0  0  0  0  0  0  0  0  0  0  0
   11.7383   57.6994   11.2135 C   0  0  0  0  0  0  0  0  0  0  0  0
   11.2990   58.9537   11.0307 N   0  0  0  0  0  0  0  0  0  0  0  0
   12.0892   59.8537   11.5845 N   0  0  0  0  0  0  0  0  0  0  0  0
   11.9525   61.2705   11.6009 C   0  0  0  0  0  0  0  0  0  0  0  0
   12.8553   61.9990   12.3481 C   0  0  0  0  0  0  0  0  0  0  0  0
   12.7931   63.3768   12.4185 C   0  0  0  0  0  0  0  0  0  0  0  0
   11.8167   64.0632   11.7360 C   0  0  0  0  0  0  0  0  0  0  0  0
   10.9023   63.3610   10.9825 C   0  0  0  0  0  0  0  0  0  0  0  0
   10.9796   61.9680   10.9223 C   0  0  0  0  0  0  0  0  0  0  0  0
  1  2  1  0
  2  3  1  0
  2  4  1  0
  4  5  1  0
  5  6  1  0
  6  7  1  0
  7  8  1  0
  8  9  2  0
  9 10  1  0
 10 11  1  0
 11 12  1  0
 11 13  1  0
 11 14  1  0
 10 15  2  0
 15 16  1  0
 16 17  2  0
 17 18  1  0
 18 19  2  0
 19 20  1  0
 20 21  1  0
 21 22  2  0
 22 23  1  0
 23 24  2  0
 24 25  1  0
 25 26  2  0
 17  8  1  0
 26 21  1  0
 20 16  1  0
M  END
$$$$
