
     RDKit          3D

 21 23  0  0  0  0  0  0  0  0999 V2000
   20.0912   48.5705   17.0358 C   0  0  0  0  0  0  0  0  0  0  0  0
   19.1734   48.1608   18.1287 C   0  0  0  0  0  0  0  0  0  0  0  0
   19.5366   47.2809   19.0862 N   0  0  0  0  0  0  0  0  0  0  0  0
   18.5299   47.1407   19.8727 O   0  0  0  0  0  0  0  0  0  0  0  0
   17.5222   47.8798   19.4869 C   0  0  0  0  0  0  0  0  0  0  0  0
   16.2220   47.9271   20.1981 C   0  0  0  0  0  0  0  0  0  0  0  0
   15.7445   46.5235   20.4070 C   0  0  0  0  0  0  0  0  0  0  0  0
   15.3169   48.7183   19.3919 N   0  0  0  0  0  0  0  0  0  0  0  0
   14.1360   48.0110   19.0046 C   0  0  0  0  0  0  0  0  0  0  0  0
   13.7217   48.7097   17.7254 C   0  0  0  0  0  0  0  0  0  0  0  0
   15.0759   48.8198   17.0329 C   0  0  0  0  0  0  0  0  0  0  0  0
   15.0585   49.8244   15.9582 C   0  0  0  0  0  0  0  0  0  0  0  0
   14.9059   49.4617   14.6419 C   0  0  0  0  0  0  0  0  0  0  0  0
   14.8957   50.4550   13.6573 C   0  0  0  0  0  0  0  0  0  0  0  0
   15.0345   51.7872   13.9716 C   0  0  0  0  0  0  0  0  0  0  0  0
   15.1877   52.1514   15.2926 C   0  0  0  0  0  0  0  0  0  0  0  0
   15.3357   53.5351   15.6607 C   0  0  0  0  0  0  0  0  0  0  0  0
   15.4719   54.6634   15.9475 N   0  0  0  0  0  0  0  0  0  0  0  0
   15.1959   51.1452   16.2673 C   0  0  0  0  0  0  0  0  0  0  0  0
   15.9244   49.2784   18.2281 C   0  0  0  0  0  0  0  0  0  0  0  0
   17.9141   48.5370   18.3770 N   0  0  0  0  0  0  0  0  0  0  0  0
  1  2  1  0
  2  3  2  0
  3  4  1  0
  4  5  1  0
  5  6  1  0
  6  7  1  0
  6  8  1  0
  8  9  1  0
  9 10  1  0
 10 11  1  0
 11 12  1  0
 12 13  2  0
 13 14  1  0
 14 15  2  0
 15 16  1  0
 16 17  1  0
 17 18  3  0
 16 19  2  0
 11 20  1  0
  5 21  2  0
 21  2  1  0
 20  8  1  0
 19 12  1  0
M  END
$$$$
