
     RDKit          3D

 24 25  0  0  0  0  0  0  0  0999 V2000
   12.1690   98.8339   54.6134 C   0  0  0  0  0  0  0  0  0  0  0  0
   13.0048   98.8957   55.8502 C   0  0  0  0  0  0  0  0  0  0  0  0
   12.1808   99.2040   57.0163 N   0  0  0  0  0  0  0  0  0  0  0  0
   11.9307  100.4944   57.2993 C   0  0  0  0  0  0  0  0  0  0  0  0
   11.1563  100.7829   58.3951 C   0  0  0  0  0  0  0  0  0  0  0  0
   10.8659  102.1489   58.7316 C   0  0  0  0  0  0  0  0  0  0  0  0
   10.6461  103.2678   58.9992 N   0  0  0  0  0  0  0  0  0  0  0  0
   10.6665   99.7335   59.1614 C   0  0  0  0  0  0  0  0  0  0  0  0
    9.9624  100.0110   60.1570 O   0  0  0  0  0  0  0  0  0  0  0  0
   10.9243   98.4535   58.8667 N   0  0  0  0  0  0  0  0  0  0  0  0
   10.4105   97.3671   59.6697 C   0  0  0  0  0  0  0  0  0  0  0  0
   11.4689   96.7545   60.5118 C   0  0  0  0  0  0  0  0  0  0  0  0
   12.6370   97.2177   60.4707 O   0  0  0  0  0  0  0  0  0  0  0  0
   11.2457   95.6534   61.3823 N   0  0  0  0  0  0  0  0  0  0  0  0
   12.2462   95.0855   62.2075 C   0  0  0  0  0  0  0  0  0  0  0  0
   13.5247   94.8405   61.7676 C   0  0  0  0  0  0  0  0  0  0  0  0
   14.4918   94.2808   62.5987 C   0  0  0  0  0  0  0  0  0  0  0  0
   14.1397   93.9700   63.8965 C   0  0  0  0  0  0  0  0  0  0  0  0
   15.1603   93.3745   64.7888 C   0  0  0  0  0  0  0  0  0  0  0  0
   12.8624   94.2033   64.3718 C   0  0  0  0  0  0  0  0  0  0  0  0
   12.5481   93.8460   65.7786 C   0  0  0  0  0  0  0  0  0  0  0  0
   11.9211   94.7658   63.5075 C   0  0  0  0  0  0  0  0  0  0  0  0
   11.6865   98.2196   57.7851 C   0  0  0  0  0  0  0  0  0  0  0  0
   11.9311   97.0019   57.5058 O   0  0  0  0  0  0  0  0  0  0  0  0
  1  2  1  0
  2  3  1  0
  3  4  1  0
  4  5  2  0
  5  6  1  0
  6  7  3  0
  5  8  1  0
  8  9  2  0
  8 10  1  0
 10 11  1  0
 11 12  1  0
 12 13  2  0
 12 14  1  0
 14 15  1  0
 15 16  2  0
 16 17  1  0
 17 18  2  0
 18 19  1  0
 18 20  1  0
 20 21  1  0
 20 22  2  0
 10 23  1  0
 23 24  2  0
 23  3  1  0
 22 15  1  0
M  END
$$$$
