
     RDKit          3D

 23 25  0  0  0  0  0  0  0  0999 V2000
   14.0463   49.0943   16.0060 C   0  0  0  0  0  0  0  0  0  0  0  0
   14.8773   49.2388   17.2546 C   0  0  0  0  0  0  0  0  0  0  0  0
   16.1977   49.6224   17.2905 C   0  0  0  0  0  0  0  0  0  0  0  0
   17.0161   49.9572   16.1147 C   0  0  0  0  0  0  0  0  0  0  0  0
   16.6038   51.3331   15.6782 C   0  0  0  0  0  0  0  0  0  0  0  0
   15.9995   52.1330   16.4414 O   0  0  0  0  0  0  0  0  0  0  0  0
   16.8795   51.8148   14.3546 N   0  0  0  0  0  0  0  0  0  0  0  0
   16.3950   53.0639   13.9039 C   0  0  0  0  0  0  0  0  0  0  0  0
   15.7154   53.9322   14.7210 C   0  0  0  0  0  0  0  0  0  0  0  0
   15.2354   55.1478   14.3104 C   0  0  0  0  0  0  0  0  0  0  0  0
   15.4417   55.5326   13.0005 C   0  0  0  0  0  0  0  0  0  0  0  0
   14.9443   56.7975   12.6309 N   0  0  0  0  0  0  0  0  0  0  0  0
   14.9464   57.3267   11.2704 C   0  0  0  0  0  0  0  0  0  0  0  0
   13.4991   57.7420   10.9883 C   0  0  0  0  0  0  0  0  0  0  0  0
   13.1282   58.7264   11.8663 O   0  0  0  0  0  0  0  0  0  0  0  0
   13.0770   58.2955   13.1891 C   0  0  0  0  0  0  0  0  0  0  0  0
   14.3959   57.6912   13.6279 C   0  0  0  0  0  0  0  0  0  0  0  0
   16.1173   54.6936   12.1487 C   0  0  0  0  0  0  0  0  0  0  0  0
   16.5939   53.4567   12.6040 C   0  0  0  0  0  0  0  0  0  0  0  0
   16.5722   49.6274   18.6076 C   0  0  0  0  0  0  0  0  0  0  0  0
   15.4957   49.2557   19.3209 N   0  0  0  0  0  0  0  0  0  0  0  0
   14.4854   49.0237   18.5186 N   0  0  0  0  0  0  0  0  0  0  0  0
   13.1244   48.6002   18.8415 C   0  0  0  0  0  0  0  0  0  0  0  0
  1  2  1  0
  2  3  2  0
  3  4  1  0
  4  5  1  0
  5  6  2  0
  5  7  1  0
  7  8  1  0
  8  9  2  0
  9 10  1  0
 10 11  2  0
 11 12  1  0
 12 13  1  0
 13 14  1  0
 14 15  1  0
 15 16  1  0
 16 17  1  0
 11 18  1  0
 18 19  2  0
  3 20  1  0
 20 21  2  0
 21 22  1  0
 22 23  1  0
 22  2  1  0
 19  8  1  0
 17 12  1  0
M  END
$$$$
