
     RDKit          3D

 25 28  0  0  0  0  0  0  0  0999 V2000
   13.6583   97.3562   61.4708 O   0  0  0  0  0  0  0  0  0  0  0  0
   12.7248   96.5942   61.1637 C   0  0  0  0  0  0  0  0  0  0  0  0
   12.0738   96.7871   59.9316 N   0  0  0  0  0  0  0  0  0  0  0  0
   12.5227   97.5486   58.8350 C   0  0  0  0  0  0  0  0  0  0  0  0
   13.2377   98.7003   58.8683 C   0  0  0  0  0  0  0  0  0  0  0  0
   13.6216   99.3593   57.7066 C   0  0  0  0  0  0  0  0  0  0  0  0
   13.2983   98.8811   56.4594 C   0  0  0  0  0  0  0  0  0  0  0  0
   13.6857   99.5482   55.2257 C   0  0  0  0  0  0  0  0  0  0  0  0
   14.5408  100.6009   55.2130 N   0  0  0  0  0  0  0  0  0  0  0  0
   14.7235  101.0229   53.9385 C   0  0  0  0  0  0  0  0  0  0  0  0
   15.4630  102.0128   53.4138 N   0  0  0  0  0  0  0  0  0  0  0  0
   15.4328  102.1821   52.0817 C   0  0  0  0  0  0  0  0  0  0  0  0
   14.6573  101.3498   51.3040 C   0  0  0  0  0  0  0  0  0  0  0  0
   13.9100  100.3534   51.8077 N   0  0  0  0  0  0  0  0  0  0  0  0
   13.8980  100.1340   53.1297 C   0  0  0  0  0  0  0  0  0  0  0  0
   13.2986   99.2687   53.9600 N   0  0  0  0  0  0  0  0  0  0  0  0
   12.5725   97.7123   56.4205 C   0  0  0  0  0  0  0  0  0  0  0  0
   12.1923   97.0598   57.5675 C   0  0  0  0  0  0  0  0  0  0  0  0
   12.3618   95.5299   62.1236 C   0  0  0  0  0  0  0  0  0  0  0  0
   13.3078   95.0930   63.0370 C   0  0  0  0  0  0  0  0  0  0  0  0
   13.0599   94.1076   63.9676 C   0  0  0  0  0  0  0  0  0  0  0  0
   11.8201   93.5077   64.0179 C   0  0  0  0  0  0  0  0  0  0  0  0
   11.4614   92.2432   65.1928 Cl  0  0  0  0  0  0  0  0  0  0  0  0
   10.8716   93.9332   63.1155 C   0  0  0  0  0  0  0  0  0  0  0  0
   11.1316   94.9368   62.1712 C   0  0  0  0  0  0  0  0  0  0  0  0
  1  2  2  0
  2  3  1  0
  3  4  1  0
  4  5  2  0
  5  6  1  0
  6  7  2  0
  7  8  1  0
  8  9  2  0
  9 10  1  0
 10 11  2  0
 11 12  1  0
 12 13  2  0
 13 14  1  0
 14 15  1  0
 15 16  2  0
  7 17  1  0
 17 18  2  0
  2 19  1  0
 19 20  2  0
 20 21  1  0
 21 22  2  0
 22 23  1  0
 22 24  1  0
 24 25  2  0
 18  4  1  0
 25 19  1  0
 16  8  1  0
 15 10  1  0
M  END
$$$$
