
     RDKit          3D

 30 33  0  0  0  0  0  0  0  0999 V2000
   34.5788   13.9520   19.4914 C   0  0  0  0  0  0  0  0  0  0  0  0
   35.8157   13.5997   18.7503 C   0  0  0  0  0  0  0  0  0  0  0  0
   36.5561   12.4556   18.9318 C   0  0  0  0  0  0  0  0  0  0  0  0
   37.6113   12.5080   18.0628 C   0  0  0  0  0  0  0  0  0  0  0  0
   38.6365   11.4938   17.9224 C   0  0  0  0  0  0  0  0  0  0  0  0
   38.8992   10.6862   18.8812 O   0  0  0  0  0  0  0  0  0  0  0  0
   39.4063   11.3185   16.7479 N   0  0  0  0  0  0  0  0  0  0  0  0
   39.3937   12.2651   15.6459 C   0  0  0  0  0  0  0  0  0  0  0  0
   39.1451   11.5878   14.3345 C   0  0  0  0  0  0  0  0  0  0  0  0
   39.8388   10.3847   14.1068 N   0  0  0  0  0  0  0  0  0  0  0  0
   40.7389   10.4290   12.9661 C   0  0  0  0  0  0  0  0  0  0  0  0
   40.1855   11.3692   11.9377 C   0  0  0  0  0  0  0  0  0  0  0  0
   40.7096   12.6317   11.7792 C   0  0  0  0  0  0  0  0  0  0  0  0
   40.2429   13.5448   10.8572 C   0  0  0  0  0  0  0  0  0  0  0  0
   39.1948   13.1406   10.0673 C   0  0  0  0  0  0  0  0  0  0  0  0
   38.6541   11.8833   10.2073 C   0  0  0  0  0  0  0  0  0  0  0  0
   39.1436   10.9995   11.1360 C   0  0  0  0  0  0  0  0  0  0  0  0
   42.1288   10.7005   13.3166 C   0  0  0  0  0  0  0  0  0  0  0  0
   42.5264   11.9651   13.7620 C   0  0  0  0  0  0  0  0  0  0  0  0
   43.8481   12.1907   14.0852 C   0  0  0  0  0  0  0  0  0  0  0  0
   44.7768   11.1755   13.9707 C   0  0  0  0  0  0  0  0  0  0  0  0
   44.4093    9.9071   13.5300 C   0  0  0  0  0  0  0  0  0  0  0  0
   43.0817    9.7061   13.2128 C   0  0  0  0  0  0  0  0  0  0  0  0
   40.4720    9.7331   15.1758 C   0  0  0  0  0  0  0  0  0  0  0  0
   40.2582   10.1865   16.5590 C   0  0  0  0  0  0  0  0  0  0  0  0
   37.4939   13.6845   17.3678 C   0  0  0  0  0  0  0  0  0  0  0  0
   38.3726   14.2282   16.3110 C   0  0  0  0  0  0  0  0  0  0  0  0
   37.5891   14.8113   15.1638 C   0  0  0  0  0  0  0  0  0  0  0  0
   39.4195   15.1794   16.8242 C   0  0  0  0  0  0  0  0  0  0  0  0
   36.3961   14.3030   17.8205 O   0  0  0  0  0  0  0  0  0  0  0  0
  1  2  1  0
  2  3  2  0
  3  4  1  0
  4  5  1  0
  5  6  2  0
  5  7  1  0
  7  8  1  0
  8  9  1  0
  9 10  1  0
 10 11  1  0
 11 12  1  0
 12 13  2  0
 13 14  1  0
 14 15  2  0
 15 16  1  0
 16 17  2  0
 11 18  1  0
 18 19  2  0
 19 20  1  0
 20 21  2  0
 21 22  1  0
 22 23  2  0
 10 24  1  0
 24 25  1  0
  4 26  2  0
 26 27  1  0
 27 28  1  0
 27 29  1  0
 26 30  1  0
 30  2  1  0
 25  7  1  0
 17 12  1  0
 23 18  1  0
M  END
$$$$
