
     RDKit          3D

 36 40  0  0  0  0  0  0  0  0999 V2000
    8.2128   97.9449   57.0589 C   0  0  0  0  0  0  0  0  0  0  0  0
    9.5661   98.4688   57.2560 N   0  0  0  0  0  0  0  0  0  0  0  0
   10.6314   98.1645   56.4144 C   0  0  0  0  0  0  0  0  0  0  0  0
   10.3646   97.4514   55.3825 O   0  0  0  0  0  0  0  0  0  0  0  0
   12.0082   98.5822   56.5846 C   0  0  0  0  0  0  0  0  0  0  0  0
   12.5910   98.3451   57.8605 C   0  0  0  0  0  0  0  0  0  0  0  0
   11.7810   97.7511   58.7671 O   0  0  0  0  0  0  0  0  0  0  0  0
   11.7576   96.5131   59.3598 C   0  0  0  0  0  0  0  0  0  0  0  0
   11.8502   96.4915   60.8586 C   0  0  0  0  0  0  0  0  0  0  0  0
   12.6716   95.3484   61.2978 N   0  0  0  0  0  0  0  0  0  0  0  0
   11.8002   94.4804   62.0942 C   0  0  0  0  0  0  0  0  0  0  0  0
   12.6876   93.4032   62.6877 C   0  0  0  0  0  0  0  0  0  0  0  0
   13.3890   94.0748   63.8707 C   0  0  0  0  0  0  0  0  0  0  0  0
   12.4637   93.8954   65.0434 C   0  0  0  0  0  0  0  0  0  0  0  0
   12.4728   92.5817   65.6719 C   0  0  0  0  0  0  0  0  0  0  0  0
   11.7361   92.3265   66.8205 C   0  0  0  0  0  0  0  0  0  0  0  0
   11.7803   91.0912   67.4032 C   0  0  0  0  0  0  0  0  0  0  0  0
   12.5383   90.0504   66.8996 C   0  0  0  0  0  0  0  0  0  0  0  0
   13.2788   90.2853   65.7561 C   0  0  0  0  0  0  0  0  0  0  0  0
   13.2247   91.5478   65.1738 C   0  0  0  0  0  0  0  0  0  0  0  0
   13.5615   95.5463   63.5996 C   0  0  0  0  0  0  0  0  0  0  0  0
   13.7777   95.8207   62.1194 C   0  0  0  0  0  0  0  0  0  0  0  0
   13.8929   98.7179   58.0909 C   0  0  0  0  0  0  0  0  0  0  0  0
   14.5942   99.3147   57.0761 C   0  0  0  0  0  0  0  0  0  0  0  0
   14.0813   99.5714   55.8271 C   0  0  0  0  0  0  0  0  0  0  0  0
   14.8057  100.2073   54.8430 C   0  0  0  0  0  0  0  0  0  0  0  0
   14.2887  100.5031   53.6061 C   0  0  0  0  0  0  0  0  0  0  0  0
   15.0548  101.1858   52.5737 C   0  0  0  0  0  0  0  0  0  0  0  0
   15.8536  102.2602   52.8804 C   0  0  0  0  0  0  0  0  0  0  0  0
   16.5623  102.9026   51.9431 N   0  0  0  0  0  0  0  0  0  0  0  0
   16.4862  102.4786   50.6604 C   0  0  0  0  0  0  0  0  0  0  0  0
   15.7139  101.4304   50.3273 N   0  0  0  0  0  0  0  0  0  0  0  0
   14.9921  100.7717   51.2653 C   0  0  0  0  0  0  0  0  0  0  0  0
   12.9835  100.1301   53.3807 C   0  0  0  0  0  0  0  0  0  0  0  0
   12.2274   99.4805   54.3697 C   0  0  0  0  0  0  0  0  0  0  0  0
   12.7629   99.1886   55.6060 C   0  0  0  0  0  0  0  0  0  0  0  0
  1  2  1  0
  2  3  1  0
  3  4  2  0
  3  5  1  0
  5  6  2  0
  6  7  1  0
  7  8  1  0
  8  9  1  0
  9 10  1  0
 10 11  1  0
 11 12  1  0
 12 13  1  0
 13 14  1  0
 14 15  1  0
 15 16  2  0
 16 17  1  0
 17 18  2  0
 18 19  1  0
 19 20  2  0
 13 21  1  0
 21 22  1  0
  6 23  1  0
 23 24  2  0
 24 25  1  0
 25 26  2  0
 26 27  1  0
 27 28  1  0
 28 29  2  0
 29 30  1  0
 30 31  2  0
 31 32  1  0
 32 33  2  0
 27 34  2  0
 34 35  1  0
 35 36  2  0
 36  5  1  0
 22 10  1  0
 36 25  1  0
 20 15  1  0
 33 28  1  0
M  END
$$$$
