
     RDKit          3D

 31 33  0  0  0  0  0  0  0  0999 V2000
  -11.1509   62.3523   32.6432 C   0  0  0  0  0  0  0  0  0  0  0  0
  -10.6441   63.3177   33.6672 C   0  0  0  0  0  0  0  0  0  0  0  0
  -11.8476   64.1499   34.1311 C   0  0  0  0  0  0  0  0  0  0  0  0
  -10.2046   62.5272   34.8886 C   0  0  0  0  0  0  0  0  0  0  0  0
   -9.6857   64.2127   33.2103 O   0  0  0  0  0  0  0  0  0  0  0  0
   -8.4366   63.8848   32.7058 C   0  0  0  0  0  0  0  0  0  0  0  0
   -8.1913   62.6891   32.4945 O   0  0  0  0  0  0  0  0  0  0  0  0
   -7.4391   64.8501   32.4246 N   0  0  0  0  0  0  0  0  0  0  0  0
   -6.0614   64.5299   32.2788 C   0  0  0  0  0  0  0  0  0  0  0  0
   -5.6467   63.3104   31.7512 C   0  0  0  0  0  0  0  0  0  0  0  0
   -4.3144   62.9974   31.6079 C   0  0  0  0  0  0  0  0  0  0  0  0
   -3.9029   61.7525   31.0676 N   0  0  0  0  0  0  0  0  0  0  0  0
   -2.6954   61.1985   31.2601 N   0  0  0  0  0  0  0  0  0  0  0  0
   -2.6267   60.0259   30.6168 C   0  0  0  0  0  0  0  0  0  0  0  0
   -1.4816   59.0967   30.5675 C   0  0  0  0  0  0  0  0  0  0  0  0
   -1.2221   58.7860   29.2508 F   0  0  0  0  0  0  0  0  0  0  0  0
   -0.3202   59.6768   31.0825 F   0  0  0  0  0  0  0  0  0  0  0  0
   -1.6944   57.9563   31.3313 F   0  0  0  0  0  0  0  0  0  0  0  0
   -3.8461   59.8541   30.0032 C   0  0  0  0  0  0  0  0  0  0  0  0
   -4.6615   60.9456   30.2846 C   0  0  0  0  0  0  0  0  0  0  0  0
   -6.0266   61.1899   29.8481 C   0  0  0  0  0  0  0  0  0  0  0  0
   -6.2069   62.1609   29.0614 O   0  0  0  0  0  0  0  0  0  0  0  0
   -7.0724   60.3705   30.2956 N   0  0  0  0  0  0  0  0  0  0  0  0
   -6.9679   59.6942   31.5746 C   0  0  0  0  0  0  0  0  0  0  0  0
   -7.9444   58.5147   31.4947 C   0  0  0  0  0  0  0  0  0  0  0  0
   -9.1975   59.0488   31.3439 O   0  0  0  0  0  0  0  0  0  0  0  0
   -9.4275   59.6560   30.1402 C   0  0  0  0  0  0  0  0  0  0  0  0
   -8.2410   60.2210   29.4571 C   0  0  0  0  0  0  0  0  0  0  0  0
   -3.3758   63.9273   32.0024 C   0  0  0  0  0  0  0  0  0  0  0  0
   -3.7872   65.1535   32.5331 C   0  0  0  0  0  0  0  0  0  0  0  0
   -5.1014   65.4088   32.6511 N   0  0  0  0  0  0  0  0  0  0  0  0
  1  2  1  0
  2  3  1  0
  2  4  1  0
  2  5  1  0
  5  6  1  0
  6  7  2  0
  6  8  1  0
  8  9  1  0
  9 10  2  0
 10 11  1  0
 11 12  1  0
 12 13  1  0
 13 14  2  0
 14 15  1  0
 15 16  1  0
 15 17  1  0
 15 18  1  0
 14 19  1  0
 19 20  2  0
 20 21  1  0
 21 22  2  0
 21 23  1  0
 23 24  1  0
 24 25  1  0
 25 26  1  0
 26 27  1  0
 27 28  1  0
 11 29  2  0
 29 30  1  0
 30 31  2  0
 31  9  1  0
 20 12  1  0
 28 23  1  0
M  END
$$$$
