
     RDKit          3D

 28 31  0  0  0  0  0  0  0  0999 V2000
   10.8645   60.6307   11.0204 O   0  0  0  0  0  0  0  0  0  0  0  0
   11.7745   60.4916   11.8951 C   0  0  0  0  0  0  0  0  0  0  0  0
   12.0957   61.6752   12.5964 N   0  0  0  0  0  0  0  0  0  0  0  0
   11.4389   62.9299   12.3752 C   0  0  0  0  0  0  0  0  0  0  0  0
   11.7918   63.5948   11.0598 C   0  0  0  0  0  0  0  0  0  0  0  0
   12.1178   64.2244   12.4131 C   0  0  0  0  0  0  0  0  0  0  0  0
   12.3932   59.1953   12.1071 C   0  0  0  0  0  0  0  0  0  0  0  0
   12.0238   58.1163   11.3485 C   0  0  0  0  0  0  0  0  0  0  0  0
   12.6298   56.9075   11.5768 N   0  0  0  0  0  0  0  0  0  0  0  0
   13.5740   56.7442   12.5194 C   0  0  0  0  0  0  0  0  0  0  0  0
   14.1805   55.4617   12.7231 N   0  0  0  0  0  0  0  0  0  0  0  0
   14.7630   55.0692   13.9495 C   0  0  0  0  0  0  0  0  0  0  0  0
   14.6728   55.8719   14.9135 O   0  0  0  0  0  0  0  0  0  0  0  0
   15.4600   53.7926   14.1627 C   0  0  1  0  0  0  0  0  0  0  0  0
   16.9407   53.8771   13.8700 C   0  0  0  0  0  0  0  0  0  0  0  0
   17.4537   52.6836   14.5764 C   0  0  0  0  0  0  0  0  0  0  0  0
   18.5202   52.0838   14.3459 O   0  0  0  0  0  0  0  0  0  0  0  0
   16.5175   52.3249   15.5782 N   0  0  0  0  0  0  0  0  0  0  0  0
   16.5438   51.2272   16.4715 C   0  0  0  0  0  0  0  0  0  0  0  0
   17.4972   50.2449   16.3967 C   0  0  0  0  0  0  0  0  0  0  0  0
   17.5315   49.1709   17.2627 C   0  0  0  0  0  0  0  0  0  0  0  0
   16.5807   49.0634   18.2465 C   0  0  0  0  0  0  0  0  0  0  0  0
   16.6123   47.7030   19.3546 Cl  0  0  0  0  0  0  0  0  0  0  0  0
   15.6125   50.0343   18.3450 C   0  0  0  0  0  0  0  0  0  0  0  0
   15.5860   51.0981   17.4802 C   0  0  0  0  0  0  0  0  0  0  0  0
   15.4245   53.3140   15.5768 C   0  0  0  0  0  0  0  0  0  0  0  0
   13.9282   57.7952   13.2523 N   0  0  0  0  0  0  0  0  0  0  0  0
   13.3608   59.0144   13.0684 C   0  0  0  0  0  0  0  0  0  0  0  0
  1  2  2  0
  2  3  1  0
  3  4  1  0
  4  5  1  0
  5  6  1  0
  2  7  1  0
  7  8  2  0
  8  9  1  0
  9 10  2  0
 10 11  1  0
 11 12  1  0
 12 13  2  0
 14 12  1  1
 14 15  1  0
 15 16  1  0
 16 17  2  0
 16 18  1  0
 18 19  1  0
 19 20  2  0
 20 21  1  0
 21 22  2  0
 22 23  1  0
 22 24  1  0
 24 25  2  0
 18 26  1  0
 10 27  1  0
 27 28  2  0
  6  4  1  0
 28  7  1  0
 26 14  1  0
 25 19  1  0
M  END
$$$$
