
     RDKit          3D

 20 20  0  0  0  0  0  0  0  0999 V2000
   36.6550   82.1663   51.8948 C   0  0  0  0  0  0  0  0  0  0  0  0
   35.9815   80.8454   51.5187 C   0  0  0  0  0  0  0  0  0  0  0  0
   34.5398   81.0921   51.1783 C   0  0  0  0  0  0  0  0  0  0  0  0
   34.5005   81.8062   49.8451 C   0  0  0  0  0  0  0  0  0  0  0  0
   33.1845   82.1862   49.4582 N   0  0  0  0  0  0  0  0  0  0  0  0
   32.4422   83.3627   50.4493 S   0  0  0  0  0  6  0  0  0  0  0  0
   32.6644   82.9215   51.8916 O   0  0  0  0  0  0  0  0  0  0  0  0
   33.0921   84.7039   50.3322 O   0  0  0  0  0  0  0  0  0  0  0  0
   30.7685   83.4047   50.1230 N   0  0  0  0  0  0  0  0  0  0  0  0
   30.5209   83.8098   48.7538 C   0  0  0  0  0  0  0  0  0  0  0  0
   30.0893   82.1706   50.3922 C   0  0  0  0  0  0  0  0  0  0  0  0
   29.4210   82.1567   51.7493 C   0  0  0  0  0  0  0  0  0  0  0  0
   30.3612   82.0416   52.7412 F   0  0  0  0  0  0  0  0  0  0  0  0
   28.5387   81.1115   51.8828 F   0  0  0  0  0  0  0  0  0  0  0  0
   28.7321   83.3408   51.8869 F   0  0  0  0  0  0  0  0  0  0  0  0
   34.9858   80.7702   48.8210 C   0  0  0  0  0  0  0  0  0  0  0  0
   36.3984   80.3638   49.0856 C   0  0  0  0  0  0  0  0  0  0  0  0
   37.3032   81.4123   48.4529 C   0  0  0  0  0  0  0  0  0  0  0  0
   36.6393   79.0762   48.2824 C   0  0  0  0  0  0  0  0  0  0  0  0
   36.7273   80.0799   50.4963 C   0  0  0  0  0  0  0  0  0  0  0  0
  1  2  1  0
  2  3  1  0
  3  4  1  0
  4  5  1  0
  5  6  1  0
  6  7  2  0
  6  8  2  0
  6  9  1  0
  9 10  1  0
  9 11  1  0
 11 12  1  0
 12 13  1  0
 12 14  1  0
 12 15  1  0
  4 16  1  0
 16 17  1  0
 17 18  1  0
 17 19  1  0
 17 20  1  0
 20  2  1  0
M  END
$$$$
