
     RDKit          3D

 21 22  0  0  0  0  0  0  0  0999 V2000
   -8.1417   56.9135   33.6513 C   0  0  0  0  0  0  0  0  0  0  0  0
   -7.9653   57.5505   32.2901 C   0  0  0  0  0  0  0  0  0  0  0  0
   -8.0354   59.0615   32.4230 C   0  0  0  0  0  0  0  0  0  0  0  0
   -7.7705   59.7367   31.1971 N   0  0  0  0  0  0  0  0  0  0  0  0
   -8.8400   60.4950   30.7239 C   0  0  0  0  0  0  0  0  0  0  0  0
   -9.6376   59.9296   29.5691 C   0  0  0  0  0  0  0  0  0  0  0  0
  -10.6462   60.8113   29.1746 O   0  0  0  0  0  0  0  0  0  0  0  0
   -6.1823   60.1275   30.8617 S   0  0  0  0  0  6  0  0  0  0  0  0
   -5.2957   59.0103   31.4473 O   0  0  0  0  0  0  0  0  0  0  0  0
   -5.9773   59.9069   29.3374 O   0  0  0  0  0  0  0  0  0  0  0  0
   -5.5153   61.5716   31.3271 N   0  0  0  0  0  0  0  0  0  0  0  0
   -6.3029   62.4106   32.1191 C   0  0  0  0  0  0  0  0  0  0  0  0
   -5.5082   63.3960   32.9637 C   0  0  0  0  0  0  0  0  0  0  0  0
   -4.6578   64.1617   31.9328 C   0  0  0  0  0  0  0  0  0  0  0  0
   -3.6265   63.1628   31.4807 C   0  0  0  0  0  0  0  0  0  0  0  0
   -4.3688   62.0771   30.6951 C   0  0  0  0  0  0  0  0  0  0  0  0
   -3.3872   61.0431   30.3167 C   0  0  0  0  0  0  0  0  0  0  0  0
   -3.6202   59.7705   29.8535 C   0  0  0  0  0  0  0  0  0  0  0  0
   -2.3839   59.1774   29.6310 C   0  0  0  0  0  0  0  0  0  0  0  0
   -1.4517   60.1212   29.9711 C   0  0  0  0  0  0  0  0  0  0  0  0
   -2.0929   61.1823   30.3617 O   0  0  0  0  0  0  0  0  0  0  0  0
  1  2  1  0
  2  3  1  0
  3  4  1  0
  4  5  1  0
  5  6  1  0
  6  7  1  0
  4  8  1  0
  8  9  2  0
  8 10  2  0
  8 11  1  0
 11 12  1  0
 12 13  1  0
 13 14  1  0
 14 15  1  0
 15 16  1  0
 16 17  1  0
 17 18  2  0
 18 19  1  0
 19 20  2  0
 20 21  1  0
 16 11  1  0
 21 17  1  0
M  END
$$$$
