
     RDKit          3D

 18 20  0  0  0  0  0  0  0  0999 V2000
   34.2297   83.2807   49.8124 O   0  0  0  0  0  0  0  0  0  0  0  0
   34.4005   82.2824   50.5189 C   0  0  0  0  0  0  0  0  0  0  0  0
   35.5294   81.3281   50.3859 C   0  0  0  0  0  0  0  0  0  0  0  0
   36.8632   81.9720   50.3893 C   0  0  0  0  0  0  0  0  0  0  0  0
   37.9158   80.9064   50.2960 C   0  0  0  0  0  0  0  0  0  0  0  0
   39.3540   81.2066   50.3181 C   0  0  0  0  0  0  0  0  0  0  0  0
   38.7187   80.8877   49.0154 C   0  0  0  0  0  0  0  0  0  0  0  0
   33.4592   81.9951   51.5515 N   0  0  0  0  0  0  0  0  0  0  0  0
   32.3097   82.7971   51.8264 C   0  0  0  0  0  0  0  0  0  0  0  0
   32.0117   82.9668   53.2964 C   0  0  0  0  0  0  0  0  0  0  0  0
   30.5277   83.2384   53.2498 C   0  0  0  0  0  0  0  0  0  0  0  0
   30.0456   82.2813   52.2251 C   0  0  0  0  0  0  0  0  0  0  0  0
   28.7818   81.6944   52.0578 C   0  0  0  0  0  0  0  0  0  0  0  0
   28.6247   80.8372   50.9939 C   0  0  0  0  0  0  0  0  0  0  0  0
   27.4273   80.2239   50.7594 F   0  0  0  0  0  0  0  0  0  0  0  0
   29.6436   80.5556   50.1251 C   0  0  0  0  0  0  0  0  0  0  0  0
   30.8645   81.1510   50.3249 C   0  0  0  0  0  0  0  0  0  0  0  0
   31.0963   82.0260   51.3763 C   0  0  0  0  0  0  0  0  0  0  0  0
  1  2  2  0
  2  3  1  0
  3  4  1  0
  4  5  1  0
  5  6  1  0
  6  7  1  0
  2  8  1  0
  8  9  1  0
  9 10  1  0
 10 11  1  0
 11 12  1  0
 12 13  2  0
 13 14  1  0
 14 15  1  0
 14 16  2  0
 16 17  1  0
 17 18  2  0
  7  5  1  0
 18  9  1  0
 18 12  1  0
M  END
$$$$
