
     RDKit          3D

 26 30  0  0  0  0  0  0  0  0999 V2000
   12.8425   96.7024   58.3710 C   0  0  0  0  0  0  0  0  0  0  0  0
   12.4178   97.7646   57.5416 O   0  0  0  0  0  0  0  0  0  0  0  0
   11.8990   98.9021   58.1144 C   0  0  0  0  0  0  0  0  0  0  0  0
   11.6817   98.9423   59.4761 C   0  0  0  0  0  0  0  0  0  0  0  0
   11.1611  100.0842   60.0496 C   0  0  0  0  0  0  0  0  0  0  0  0
   10.8693  101.1645   59.2381 C   0  0  0  0  0  0  0  0  0  0  0  0
   11.0935  101.1103   57.8653 C   0  0  0  0  0  0  0  0  0  0  0  0
   11.6126   99.9711   57.2954 C   0  0  0  0  0  0  0  0  0  0  0  0
   11.8573   99.8774   55.8859 N   0  0  0  0  0  0  0  0  0  0  0  0
   11.0398   99.3988   54.9594 N   0  0  0  0  0  0  0  0  0  0  0  0
   11.6203   99.4744   53.7370 C   0  0  0  0  0  0  0  0  0  0  0  0
   12.8643  100.0292   53.9127 C   0  0  0  0  0  0  0  0  0  0  0  0
   12.9808  100.2684   55.2619 C   0  0  0  0  0  0  0  0  0  0  0  0
   14.1274  100.8222   55.7253 N   0  0  0  0  0  0  0  0  0  0  0  0
   15.1199  101.1245   54.8665 C   0  0  0  0  0  0  0  0  0  0  0  0
   16.3220  101.7069   55.3651 N   0  0  0  0  0  0  0  0  0  0  0  0
   15.0523  100.9088   53.5367 N   0  0  0  0  0  0  0  0  0  0  0  0
   15.8587  101.1077   52.5068 N   0  0  0  0  0  0  0  0  0  0  0  0
   15.2722  100.6976   51.3670 C   0  0  0  0  0  0  0  0  0  0  0  0
   15.8192  100.7395   50.0064 C   0  0  0  0  0  0  0  0  0  0  0  0
   17.0308  101.2567   49.5953 C   0  0  0  0  0  0  0  0  0  0  0  0
   17.1363  101.0846   48.2284 C   0  0  0  0  0  0  0  0  0  0  0  0
   15.9586  100.4572   47.8634 C   0  0  0  0  0  0  0  0  0  0  0  0
   15.2209  100.2757   48.9320 O   0  0  0  0  0  0  0  0  0  0  0  0
   14.0626  100.2340   51.7363 N   0  0  0  0  0  0  0  0  0  0  0  0
   13.8974  100.3506   53.0668 C   0  0  0  0  0  0  0  0  0  0  0  0
  1  2  1  0
  2  3  1  0
  3  4  2  0
  4  5  1  0
  5  6  2  0
  6  7  1  0
  7  8  2  0
  8  9  1  0
  9 10  1  0
 10 11  2  0
 11 12  1  0
 12 13  2  0
 13 14  1  0
 14 15  2  0
 15 16  1  0
 15 17  1  0
 17 18  1  0
 18 19  2  0
 19 20  1  0
 20 21  2  0
 21 22  1  0
 22 23  2  0
 23 24  1  0
 19 25  1  0
 25 26  2  0
  8  3  1  0
 13  9  1  0
 26 17  1  0
 26 12  1  0
 24 20  1  0
M  END
$$$$
