
     RDKit          3D

 34 37  0  0  0  0  0  0  0  0999 V2000
  -10.4579   55.9095   36.0855 C   0  0  0  0  0  0  0  0  0  0  0  0
   -9.6135   56.0488   34.9931 O   0  0  0  0  0  0  0  0  0  0  0  0
   -9.6678   57.0144   34.0177 C   0  0  0  0  0  0  0  0  0  0  0  0
   -9.6421   58.3497   34.4262 C   0  0  0  0  0  0  0  0  0  0  0  0
   -9.6917   59.3857   33.5310 C   0  0  0  0  0  0  0  0  0  0  0  0
   -9.7698   59.0645   32.1789 C   0  0  0  0  0  0  0  0  0  0  0  0
   -9.8286   60.1682   31.2085 C   0  0  1  0  0  0  0  0  0  0  0  0
   -8.5929   60.6905   30.5997 C   0  0  1  0  0  0  0  0  0  0  0  0
   -7.3301   60.6345   31.3620 C   0  0  0  0  0  0  0  0  0  0  0  0
   -6.5577   61.9058   31.2427 C   0  0  0  0  0  0  0  0  0  0  0  0
   -5.7133   61.9070   30.0009 C   0  0  0  0  0  0  0  0  0  0  0  0
   -4.4390   61.1367   30.2309 C   0  0  0  0  0  0  0  0  0  0  0  0
   -4.0546   60.2088   29.2875 C   0  0  0  0  0  0  0  0  0  0  0  0
   -2.8998   59.4714   29.4387 C   0  0  0  0  0  0  0  0  0  0  0  0
   -2.1009   59.6648   30.5681 C   0  0  0  0  0  0  0  0  0  0  0  0
   -2.5033   60.5982   31.5001 C   0  0  0  0  0  0  0  0  0  0  0  0
   -3.6556   61.3327   31.3471 C   0  0  0  0  0  0  0  0  0  0  0  0
   -8.8107   59.6877   29.5577 C   0  0  0  0  0  0  0  0  0  0  0  0
   -8.1412   59.0559   28.6824 O   0  0  0  0  0  0  0  0  0  0  0  0
  -10.1739   59.6736   29.9092 N   0  0  0  0  0  0  0  0  0  0  0  0
  -11.3387   59.3015   29.1803 C   0  0  0  0  0  0  0  0  0  0  0  0
  -12.5835   59.7576   29.5480 C   0  0  0  0  0  0  0  0  0  0  0  0
  -13.7252   59.3968   28.8418 C   0  0  0  0  0  0  0  0  0  0  0  0
  -14.9710   59.8647   29.2249 O   0  0  0  0  0  0  0  0  0  0  0  0
  -15.5078   59.7175   30.5030 C   0  0  0  0  0  0  0  0  0  0  0  0
  -13.5835   58.5683   27.7591 C   0  0  0  0  0  0  0  0  0  0  0  0
  -14.7198   58.1846   27.0236 O   0  0  0  0  0  0  0  0  0  0  0  0
  -15.0611   58.8727   25.8437 C   0  0  0  0  0  0  0  0  0  0  0  0
  -12.3621   58.0944   27.3622 C   0  0  0  0  0  0  0  0  0  0  0  0
  -12.2390   57.2476   26.2499 O   0  0  0  0  0  0  0  0  0  0  0  0
  -11.1772   56.3353   26.2062 C   0  0  0  0  0  0  0  0  0  0  0  0
  -11.2268   58.4700   28.0875 C   0  0  0  0  0  0  0  0  0  0  0  0
   -9.7949   57.7486   31.7797 C   0  0  0  0  0  0  0  0  0  0  0  0
   -9.7448   56.6829   32.6866 C   0  0  0  0  0  0  0  0  0  0  0  0
  1  2  1  0
  2  3  1  0
  3  4  2  0
  4  5  1  0
  5  6  2  0
  7  6  1  1
  7  8  1  0
  8  9  1  1
  9 10  1  0
 10 11  1  0
 11 12  1  0
 12 13  2  0
 13 14  1  0
 14 15  2  0
 15 16  1  0
 16 17  2  0
  8 18  1  0
 18 19  2  0
 18 20  1  0
 20 21  1  0
 21 22  2  0
 22 23  1  0
 23 24  1  0
 24 25  1  0
 23 26  2  0
 26 27  1  0
 27 28  1  0
 26 29  1  0
 29 30  1  0
 30 31  1  0
 29 32  2  0
  6 33  1  0
 33 34  2  0
 34  3  1  0
 20  7  1  0
 32 21  1  0
 17 12  1  0
M  END
$$$$
