
     RDKit          3D

 19 21  0  0  0  0  0  0  0  0999 V2000
   12.0661   57.7204   13.4334 O   0  0  0  0  0  0  0  0  0  0  0  0
   13.0846   58.2115   12.8691 C   0  0  0  0  0  0  0  0  0  0  0  0
   12.9787   59.6100   12.4517 C   0  0  0  0  0  0  0  0  0  0  0  0
   12.3432   60.6436   13.1174 C   0  0  0  0  0  0  0  0  0  0  0  0
   12.4826   61.7967   12.3634 C   0  0  0  0  0  0  0  0  0  0  0  0
   13.1884   61.4366   11.2764 N   0  0  0  0  0  0  0  0  0  0  0  0
   13.4783   60.1512   11.3326 N   0  0  0  0  0  0  0  0  0  0  0  0
   14.2398   57.4329   12.6689 N   0  0  0  0  0  0  0  0  0  0  0  0
   15.1287   57.7415   11.5723 C   0  0  0  0  0  0  0  0  0  0  0  0
   15.4466   56.3534   10.9850 C   0  0  0  0  0  0  0  0  0  0  0  0
   16.4591   55.7829   11.9499 C   0  0  0  0  0  0  0  0  0  0  0  0
   15.9143   55.7470   13.3306 C   0  0  2  0  0  0  0  0  0  0  0  0
   15.9397   54.4042   13.8919 N   0  0  0  0  0  0  0  0  0  0  0  0
   15.1418   53.2574   13.5557 C   0  0  0  0  0  0  0  0  0  0  0  0
   16.1871   52.1383   13.6964 C   0  0  0  0  0  0  0  0  0  0  0  0
   16.8088   52.5205   14.9613 N   0  0  0  0  0  0  0  0  0  0  0  0
   16.7914   53.9651   14.9477 C   0  0  0  0  0  0  0  0  0  0  0  0
   17.4413   54.6468   15.7620 O   0  0  0  0  0  0  0  0  0  0  0  0
   14.5484   56.3338   13.5323 C   0  0  0  0  0  0  0  0  0  0  0  0
  1  2  2  0
  2  3  1  0
  3  4  1  0
  4  5  2  0
  5  6  1  0
  6  7  1  0
  2  8  1  0
  8  9  1  0
  9 10  1  0
 10 11  1  0
 11 12  1  0
 12 13  1  6
 13 14  1  0
 14 15  1  0
 15 16  1  0
 16 17  1  0
 17 18  2  0
 12 19  1  0
  7  3  2  0
 19  8  1  0
 17 13  1  0
M  END
$$$$
