
     RDKit          3D

 19 21  0  0  0  0  0  0  0  0999 V2000
   13.8963   57.7738   12.9485 C   0  0  0  0  0  0  0  0  0  0  0  0
   14.8828   56.6782   12.7071 C   0  0  0  0  0  0  0  0  0  0  0  0
   15.0052   55.5332   13.4667 C   0  0  0  0  0  0  0  0  0  0  0  0
   16.0210   54.7623   12.9386 C   0  0  0  0  0  0  0  0  0  0  0  0
   16.5262   53.4787   13.3802 C   0  0  0  0  0  0  0  0  0  0  0  0
   17.4336   52.7159   12.7567 N   0  0  0  0  0  0  0  0  0  0  0  0
   17.5770   51.6332   13.5419 N   0  0  0  0  0  0  0  0  0  0  0  0
   16.7758   51.7414   14.6118 C   0  0  0  0  0  0  0  0  0  0  0  0
   16.6627   50.7886   15.6520 N   0  0  0  0  0  0  0  0  0  0  0  0
   15.5218   50.6994   16.4977 C   0  0  0  0  0  0  0  0  0  0  0  0
   14.6529   51.6070   16.4033 O   0  0  0  0  0  0  0  0  0  0  0  0
   15.3163   49.6613   17.4236 N   0  0  0  0  0  0  0  0  0  0  0  0
   14.1672   49.6669   18.3248 C   0  0  0  0  0  0  0  0  0  0  0  0
   13.8293   48.4642   19.1120 C   0  0  0  0  0  0  0  0  0  0  0  0
   13.0107   48.7236   17.9074 C   0  0  0  0  0  0  0  0  0  0  0  0
   16.1580   52.8678   14.4789 O   0  0  0  0  0  0  0  0  0  0  0  0
   16.4766   55.5085   11.8472 C   0  0  0  0  0  0  0  0  0  0  0  0
   17.5880   55.0316   10.9826 C   0  0  0  0  0  0  0  0  0  0  0  0
   15.7818   56.6168   11.7538 O   0  0  0  0  0  0  0  0  0  0  0  0
  1  2  1  0
  2  3  2  0
  3  4  1  0
  4  5  1  0
  5  6  2  0
  6  7  1  0
  7  8  2  0
  8  9  1  0
  9 10  1  0
 10 11  2  0
 10 12  1  0
 12 13  1  0
 13 14  1  0
 14 15  1  0
  8 16  1  0
  4 17  2  0
 17 18  1  0
 17 19  1  0
 19  2  1  0
 16  5  1  0
 15 13  1  0
M  END
$$$$
