
     RDKit          3D

 25 27  0  0  0  0  0  0  0  0999 V2000
   13.7118   58.6566   11.9519 C   0  0  0  0  0  0  0  0  0  0  0  0
   14.3349   57.7799   12.8400 O   0  0  0  0  0  0  0  0  0  0  0  0
   15.4146   56.9972   12.5412 C   0  0  0  0  0  0  0  0  0  0  0  0
   15.9966   57.0945   11.3080 C   0  0  0  0  0  0  0  0  0  0  0  0
   17.0812   56.2900   11.0453 C   0  0  0  0  0  0  0  0  0  0  0  0
   17.5796   55.4087   11.9814 C   0  0  0  0  0  0  0  0  0  0  0  0
   16.9997   55.2992   13.2361 C   0  0  0  0  0  0  0  0  0  0  0  0
   17.4866   54.4187   14.1906 O   0  0  0  0  0  0  0  0  0  0  0  0
   16.6048   53.5084   14.7705 C   0  0  0  0  0  0  0  0  0  0  0  0
   17.2738   52.3753   15.4297 C   0  0  0  0  0  0  0  0  0  0  0  0
   18.4794   52.5321   15.7716 O   0  0  0  0  0  0  0  0  0  0  0  0
   16.6688   51.1304   15.7070 N   0  0  0  0  0  0  0  0  0  0  0  0
   17.3082   50.1361   16.5176 C   0  0  0  0  0  0  0  0  0  0  0  0
   18.6859   50.0253   16.5719 C   0  0  0  0  0  0  0  0  0  0  0  0
   19.2945   49.0653   17.3548 C   0  0  0  0  0  0  0  0  0  0  0  0
   18.4871   48.2168   18.0839 C   0  0  0  0  0  0  0  0  0  0  0  0
   17.1016   48.3412   18.0184 C   0  0  0  0  0  0  0  0  0  0  0  0
   16.4884   49.2980   17.2383 C   0  0  0  0  0  0  0  0  0  0  0  0
   15.0400   49.4215   17.1753 C   0  0  0  0  0  0  0  0  0  0  0  0
   14.5516   50.2317   16.3508 O   0  0  0  0  0  0  0  0  0  0  0  0
   14.1455   48.6934   17.9768 N   0  0  0  0  0  0  0  0  0  0  0  0
   12.7462   48.4958   17.6620 C   0  0  0  0  0  0  0  0  0  0  0  0
   11.8175   49.6025   18.2352 C   0  0  0  0  0  0  0  0  0  0  0  0
   11.7584   48.1567   18.6858 C   0  0  0  0  0  0  0  0  0  0  0  0
   15.9067   56.1193   13.4813 C   0  0  0  0  0  0  0  0  0  0  0  0
  1  2  1  0
  2  3  1  0
  3  4  2  0
  4  5  1  0
  5  6  2  0
  6  7  1  0
  7  8  1  0
  8  9  1  0
  9 10  1  0
 10 11  2  0
 10 12  1  0
 12 13  1  0
 13 14  2  0
 14 15  1  0
 15 16  2  0
 16 17  1  0
 17 18  2  0
 18 19  1  0
 19 20  2  0
 19 21  1  0
 21 22  1  0
 22 23  1  0
 23 24  1  0
  7 25  2  0
 25  3  1  0
 18 13  1  0
 24 22  1  0
M  END
$$$$
