
     RDKit          3D

 33 37  0  0  0  0  0  0  0  0999 V2000
   20.2507   51.1436   15.3419 C   0  0  0  0  0  0  0  0  0  0  0  0
   18.8045   50.8633   15.6327 C   0  0  0  0  0  0  0  0  0  0  0  0
   18.5226   50.0412   16.6978 C   0  0  0  0  0  0  0  0  0  0  0  0
   19.6413   49.5239   17.4744 C   0  0  0  0  0  0  0  0  0  0  0  0
   20.1073   50.1676   18.5922 C   0  0  0  0  0  0  0  0  0  0  0  0
   21.1757   49.6641   19.3441 C   0  0  0  0  0  0  0  0  0  0  0  0
   21.8021   48.4837   18.9755 C   0  0  0  0  0  0  0  0  0  0  0  0
   21.3334   47.8406   17.8541 C   0  0  0  0  0  0  0  0  0  0  0  0
   20.2812   48.3410   17.1173 C   0  0  0  0  0  0  0  0  0  0  0  0
   17.1806   49.7620   17.0041 C   0  0  0  0  0  0  0  0  0  0  0  0
   16.9657   48.9767   18.1518 N   0  0  0  0  0  0  0  0  0  0  0  0
   17.1503   49.4999   19.5061 C   0  0  0  0  0  0  0  0  0  0  0  0
   16.4275   48.5998   20.4792 C   0  0  0  0  0  0  0  0  0  0  0  0
   16.8963   47.1708   20.4549 C   0  0  0  0  0  0  0  0  0  0  0  0
   15.7317   46.2056   20.6878 C   0  0  0  0  0  0  0  0  0  0  0  0
   17.8538   46.9269   21.4252 O   0  0  0  0  0  0  0  0  0  0  0  0
   17.4699   46.8537   19.0759 C   0  0  0  0  0  0  0  0  0  0  0  0
   16.6090   47.5911   18.0474 C   0  0  0  0  0  0  0  0  0  0  0  0
   16.1940   50.3001   16.2549 N   0  0  0  0  0  0  0  0  0  0  0  0
   14.8777   50.2103   16.3660 C   0  0  0  0  0  0  0  0  0  0  0  0
   14.0288   49.5048   17.3134 C   0  0  0  0  0  0  0  0  0  0  0  0
   14.1483   49.6893   18.6934 C   0  0  0  0  0  0  0  0  0  0  0  0
   13.2746   49.0906   19.5742 C   0  0  0  0  0  0  0  0  0  0  0  0
   12.2419   48.2808   19.1587 C   0  0  0  0  0  0  0  0  0  0  0  0
   12.1095   48.0867   17.7854 C   0  0  0  0  0  0  0  0  0  0  0  0
   12.9894   48.6934   16.9131 C   0  0  0  0  0  0  0  0  0  0  0  0
   12.8384   48.5444   15.5613 F   0  0  0  0  0  0  0  0  0  0  0  0
   14.3508   51.0194   15.3290 C   0  0  0  0  0  0  0  0  0  0  0  0
   15.3521   51.5511   14.6442 N   0  0  0  0  0  0  0  0  0  0  0  0
   16.5093   51.1146   15.2034 C   0  0  0  0  0  0  0  0  0  0  0  0
   17.8026   51.4142   14.8669 C   0  0  0  0  0  0  0  0  0  0  0  0
   18.1733   52.2696   13.7701 C   0  0  0  0  0  0  0  0  0  0  0  0
   18.4600   52.9656   12.9066 N   0  0  0  0  0  0  0  0  0  0  0  0
  1  2  1  0
  2  3  1  0
  3  4  1  0
  4  5  2  0
  5  6  1  0
  6  7  2  0
  7  8  1  0
  8  9  2  0
  3 10  2  0
 10 11  1  0
 11 12  1  0
 12 13  1  0
 13 14  1  0
 14 15  1  0
 14 16  1  0
 14 17  1  0
 17 18  1  0
 10 19  1  0
 19 20  1  0
 20 21  1  0
 21 22  2  0
 22 23  1  0
 23 24  2  0
 24 25  1  0
 25 26  2  0
 26 27  1  0
 20 28  2  0
 28 29  1  0
 29 30  2  0
 30 31  1  0
 31 32  1  0
 32 33  3  0
 31  2  2  0
  9  4  1  0
 18 11  1  0
 30 19  1  0
 26 21  1  0
M  END
$$$$
