
     RDKit          3D

 22 23  0  0  0  0  0  0  0  0999 V2000
    9.7802   93.5034   62.7812 C   0  0  0  0  0  0  0  0  0  0  0  0
   10.9210   94.1253   62.2742 O   0  0  0  0  0  0  0  0  0  0  0  0
   12.2028   93.9757   62.7634 C   0  0  0  0  0  0  0  0  0  0  0  0
   12.5464   93.1019   63.7751 C   0  0  0  0  0  0  0  0  0  0  0  0
   13.8501   92.9763   64.2446 C   0  0  0  0  0  0  0  0  0  0  0  0
   14.1817   92.0249   65.3352 C   0  0  0  0  0  0  0  0  0  0  0  0
   14.8423   93.7467   63.6874 C   0  0  0  0  0  0  0  0  0  0  0  0
   14.5002   94.6276   62.6685 C   0  0  0  0  0  0  0  0  0  0  0  0
   13.2101   94.7454   62.2108 C   0  0  0  0  0  0  0  0  0  0  0  0
   12.9334   95.6370   61.1976 O   0  0  0  0  0  0  0  0  0  0  0  0
   12.4402   96.9167   61.5262 C   0  0  0  0  0  0  0  0  0  0  0  0
   12.7803   97.9250   60.5013 C   0  0  0  0  0  0  0  0  0  0  0  0
   13.5528   97.6051   59.5748 O   0  0  0  0  0  0  0  0  0  0  0  0
   12.2169   99.2264   60.6035 N   0  0  0  0  0  0  0  0  0  0  0  0
   11.0422   99.4783   61.3783 C   0  0  0  0  0  0  0  0  0  0  0  0
   12.8774  100.3238   59.8851 C   0  0  0  0  0  0  0  0  0  0  0  0
   12.1698  100.5248   58.5845 C   0  0  0  0  0  0  0  0  0  0  0  0
   11.1209  101.3860   58.3093 C   0  0  0  0  0  0  0  0  0  0  0  0
   10.8021  101.2335   57.0106 N   0  0  0  0  0  0  0  0  0  0  0  0
   11.5690  100.3383   56.4331 N   0  0  0  0  0  0  0  0  0  0  0  0
   11.5179   99.9107   55.0425 C   0  0  0  0  0  0  0  0  0  0  0  0
   12.4189   99.8857   57.3755 C   0  0  0  0  0  0  0  0  0  0  0  0
  1  2  1  0
  2  3  1  0
  3  4  2  0
  4  5  1  0
  5  6  1  0
  5  7  2  0
  7  8  1  0
  8  9  2  0
  9 10  1  0
 10 11  1  0
 11 12  1  0
 12 13  2  0
 12 14  1  0
 14 15  1  0
 14 16  1  0
 16 17  1  0
 17 18  1  0
 18 19  2  0
 19 20  1  0
 20 21  1  0
 20 22  1  0
  9  3  1  0
 22 17  2  0
M  END
$$$$
