
     RDKit          3D

 25 28  0  0  0  0  0  0  0  0999 V2000
   16.8649   92.8219   63.6776 C   0  0  0  0  0  0  0  0  0  0  0  0
   15.8731   91.8080   63.7882 O   0  0  0  0  0  0  0  0  0  0  0  0
   14.5535   92.2017   63.6117 C   0  0  0  0  0  0  0  0  0  0  0  0
   13.5459   91.2605   63.7277 C   0  0  0  0  0  0  0  0  0  0  0  0
   12.2368   91.6437   63.5540 C   0  0  0  0  0  0  0  0  0  0  0  0
   11.9382   92.9077   63.2768 N   0  0  0  0  0  0  0  0  0  0  0  0
   12.8922   93.8474   63.1572 C   0  0  0  0  0  0  0  0  0  0  0  0
   12.5760   95.1990   62.8618 N   0  0  0  0  0  0  0  0  0  0  0  0
   11.2042   95.6268   62.9746 C   0  0  0  0  0  0  0  0  0  0  0  0
   10.7327   96.0255   61.5950 C   0  0  0  0  0  0  0  0  0  0  0  0
   11.7316   96.8509   60.9762 N   0  0  0  0  0  0  0  0  0  0  0  0
   11.5649   97.2401   59.6261 C   0  0  0  0  0  0  0  0  0  0  0  0
   10.5497   96.8368   59.0039 O   0  0  0  0  0  0  0  0  0  0  0  0
   12.5110   98.0987   58.8869 C   0  0  0  0  0  0  0  0  0  0  0  0
   12.2560   98.0733   57.3877 C   0  0  0  0  0  0  0  0  0  0  0  0
   12.0673   99.4988   57.0368 C   0  0  0  0  0  0  0  0  0  0  0  0
   12.2059   99.9659   55.8846 O   0  0  0  0  0  0  0  0  0  0  0  0
   11.7142  100.1906   58.2179 N   0  0  0  0  0  0  0  0  0  0  0  0
   10.8349  101.3663   58.3276 C   0  0  0  0  0  0  0  0  0  0  0  0
   11.2576  102.5011   59.1815 C   0  0  0  0  0  0  0  0  0  0  0  0
   11.2491  102.6678   57.7268 C   0  0  0  0  0  0  0  0  0  0  0  0
   12.3845   99.5367   59.3159 C   0  0  0  0  0  0  0  0  0  0  0  0
   12.9241   97.3099   61.6764 C   0  0  0  0  0  0  0  0  0  0  0  0
   13.5619   96.1716   62.4531 C   0  0  0  0  0  0  0  0  0  0  0  0
   14.1848   93.4485   63.3328 N   0  0  0  0  0  0  0  0  0  0  0  0
  1  2  1  0
  2  3  1  0
  3  4  2  0
  4  5  1  0
  5  6  2  0
  6  7  1  0
  7  8  1  0
  8  9  1  0
  9 10  1  0
 10 11  1  0
 11 12  1  0
 12 13  2  0
 12 14  1  0
 14 15  1  0
 15 16  1  0
 16 17  2  0
 16 18  1  0
 18 19  1  0
 19 20  1  0
 20 21  1  0
 18 22  1  0
 11 23  1  0
 23 24  1  0
  7 25  2  0
 25  3  1  0
 24  8  1  0
 22 14  1  0
 21 19  1  0
M  END
$$$$
