
     RDKit          3D

 30 34  0  0  0  0  0  0  0  0999 V2000
   13.1755   94.6831   62.4681 O   0  0  0  0  0  0  0  0  0  0  0  0
   12.0347   94.8576   62.9444 C   0  0  0  0  0  0  0  0  0  0  0  0
   11.0653   95.6119   62.2375 N   0  0  0  0  0  0  0  0  0  0  0  0
   11.4313   96.4672   61.1629 C   0  0  0  0  0  0  0  0  0  0  0  0
   12.5991   96.1355   60.4870 C   0  0  0  0  0  0  0  0  0  0  0  0
   12.9865   96.9425   59.4357 C   0  0  0  0  0  0  0  0  0  0  0  0
   12.2697   98.0487   59.0366 C   0  0  0  0  0  0  0  0  0  0  0  0
   12.7076   98.8836   57.9164 C   0  0  0  0  0  0  0  0  0  0  0  0
   13.1884   98.4843   56.7265 N   0  0  0  0  0  0  0  0  0  0  0  0
   13.4851   99.5529   55.9547 C   0  0  0  0  0  0  0  0  0  0  0  0
   13.9929   99.7269   54.6817 C   0  0  0  0  0  0  0  0  0  0  0  0
   14.2044  100.9684   54.1180 C   0  0  0  0  0  0  0  0  0  0  0  0
   14.7389  101.1592   52.7774 C   0  0  0  0  0  0  0  0  0  0  0  0
   15.1132  102.3712   52.2423 C   0  0  0  0  0  0  0  0  0  0  0  0
   15.5524  102.1442   50.9957 N   0  0  0  0  0  0  0  0  0  0  0  0
   15.4695  100.8435   50.7267 N   0  0  0  0  0  0  0  0  0  0  0  0
   14.9725  100.2019   51.8003 C   0  0  0  0  0  0  0  0  0  0  0  0
   13.8909  102.1036   54.8688 C   0  0  0  0  0  0  0  0  0  0  0  0
   13.3838  101.9340   56.1401 C   0  0  0  0  0  0  0  0  0  0  0  0
   13.1732  100.6850   56.7014 C   0  0  0  0  0  0  0  0  0  0  0  0
   12.7121  100.2264   57.8667 N   0  0  0  0  0  0  0  0  0  0  0  0
   11.1179   98.3441   59.7320 C   0  0  0  0  0  0  0  0  0  0  0  0
   10.6826   97.5658   60.7974 C   0  0  0  0  0  0  0  0  0  0  0  0
   11.7687   94.2660   64.2152 N   0  0  0  0  0  0  0  0  0  0  0  0
   12.5493   93.1558   64.7333 C   0  0  0  0  0  0  0  0  0  0  0  0
   12.6635   92.1447   63.5992 C   0  0  0  0  0  0  0  0  0  0  0  0
   13.3846   90.9020   64.0124 C   0  0  0  0  0  0  0  0  0  0  0  0
   13.5589   90.8674   65.3900 O   0  0  0  0  0  0  0  0  0  0  0  0
   12.2896   91.0182   65.9636 C   0  0  0  0  0  0  0  0  0  0  0  0
   11.8403   92.4643   65.8773 C   0  0  0  0  0  0  0  0  0  0  0  0
  1  2  2  0
  2  3  1  0
  3  4  1  0
  4  5  2  0
  5  6  1  0
  6  7  2  0
  7  8  1  0
  8  9  2  0
  9 10  1  0
 10 11  2  0
 11 12  1  0
 12 13  1  0
 13 14  1  0
 14 15  2  0
 15 16  1  0
 16 17  1  0
 12 18  2  0
 18 19  1  0
 19 20  2  0
 20 21  1  0
  7 22  1  0
 22 23  2  0
  2 24  1  0
 24 25  1  0
 25 26  1  0
 26 27  1  0
 27 28  1  0
 28 29  1  0
 29 30  1  0
 23  4  1  0
 30 25  1  0
 21  8  1  0
 20 10  1  0
 17 13  2  0
M  END
$$$$
