
     RDKit          3D

 31 34  0  0  0  0  0  0  0  0999 V2000
   16.4730   51.1871   15.2316 C   0  0  0  0  0  0  0  0  0  0  0  0
   15.2204   50.9496   16.0023 C   0  0  2  0  0  0  0  0  0  0  0  0
   14.2027   52.0597   15.8383 C   0  0  0  0  0  0  0  0  0  0  0  0
   14.2096   52.4112   14.3499 C   0  0  0  0  0  0  0  0  0  0  0  0
   14.1804   53.8575   14.1266 C   0  0  0  0  0  0  0  0  0  0  0  0
   13.9282   54.6151   15.0916 O   0  0  0  0  0  0  0  0  0  0  0  0
   14.4273   54.4008   12.8658 N   0  0  0  0  0  0  0  0  0  0  0  0
   14.5021   55.8199   12.5799 C   0  0  1  0  0  0  0  0  0  0  0  0
   15.8541   56.2667   12.1303 C   0  0  0  0  0  0  0  0  0  0  0  0
   13.4194   56.1478   11.5623 C   0  0  0  0  0  0  0  0  0  0  0  0
   13.3139   57.5182   11.3557 O   0  0  0  0  0  0  0  0  0  0  0  0
   15.3863   50.4740   17.3876 C   0  0  1  0  0  0  0  0  0  0  0  0
   14.0144   50.0591   17.9053 C   0  0  0  0  0  0  0  0  0  0  0  0
   14.2392   48.7167   18.6187 C   0  0  0  0  0  0  0  0  0  0  0  0
   15.6670   48.8243   18.9661 C   0  0  1  0  0  0  0  0  0  0  0  0
   16.3687   47.5624   19.3530 C   0  0  2  0  0  0  0  0  0  0  0  0
   15.5870   46.9731   20.5116 C   0  0  0  0  0  0  0  0  0  0  0  0
   16.5167   46.4001   21.5278 C   0  0  0  0  0  0  0  0  0  0  0  0
   17.6525   45.6790   20.8296 C   0  0  2  0  0  0  0  0  0  0  0  0
   18.3322   44.8272   21.8342 C   0  0  0  0  0  0  0  0  0  0  0  0
   19.8019   44.6639   21.7003 C   0  0  2  0  0  0  0  0  0  0  0  0
   20.2895   44.2472   22.9636 O   0  0  0  0  0  0  0  0  0  0  0  0
   20.5522   45.9028   21.3413 C   0  0  0  0  0  0  0  0  0  0  0  0
   19.6514   47.0708   21.0226 C   0  0  0  0  0  0  0  0  0  0  0  0
   18.5071   46.6647   20.1156 C   0  0  1  0  0  0  0  0  0  0  0  0
   19.0027   46.0142   18.8493 C   0  0  0  0  0  0  0  0  0  0  0  0
   17.7292   47.9255   19.8279 C   0  0  1  0  0  0  0  0  0  0  0  0
   18.4759   48.8986   18.9800 C   0  0  0  0  0  0  0  0  0  0  0  0
   17.6620   49.9267   18.2944 C   0  0  0  0  0  0  0  0  0  0  0  0
   16.3489   49.4222   17.7243 C   0  0  2  0  0  0  0  0  0  0  0  0
   16.6425   48.3841   16.7242 C   0  0  0  0  0  0  0  0  0  0  0  0
  2  1  1  1
  2  3  1  0
  3  4  1  0
  4  5  1  0
  5  6  2  0
  5  7  1  0
  7  8  1  0
  8  9  1  6
  8 10  1  0
 10 11  1  0
  2 12  1  0
 12 13  1  6
 13 14  1  0
 15 14  1  6
 15 16  1  0
 16 17  1  1
 17 18  1  0
 19 18  1  1
 19 20  1  0
 20 21  1  0
 21 22  1  1
 21 23  1  0
 23 24  1  0
 24 25  1  0
 25 26  1  6
 25 27  1  0
 27 28  1  6
 28 29  1  0
 29 30  1  0
 30 31  1  6
 30 12  1  0
 30 15  1  0
 27 16  1  0
 25 19  1  0
M  END
$$$$
