
     RDKit          3D

 35 39  0  0  0  0  0  0  0  0999 V2000
   33.2625   83.4992   48.5537 C   0  0  0  0  0  0  0  0  0  0  0  0
   33.5358   82.1680   49.0564 C   0  0  0  0  0  0  0  0  0  0  0  0
   32.2636   81.3276   48.8062 C   0  0  0  0  0  0  0  0  0  0  0  0
   32.5874   80.1111   48.2189 O   0  0  0  0  0  0  0  0  0  0  0  0
   31.4011   81.2032   49.9981 C   0  0  0  0  0  0  0  0  0  0  0  0
   30.2373   82.0648   49.9115 N   0  0  0  0  0  0  0  0  0  0  0  0
   29.4924   82.0397   51.1529 C   0  0  0  0  0  0  0  0  0  0  0  0
   28.0032   81.9022   50.9318 C   0  0  0  0  0  0  0  0  0  0  0  0
   29.7039   83.3267   51.9331 C   0  0  0  0  0  0  0  0  0  0  0  0
   28.8830   84.3354   51.4316 F   0  0  0  0  0  0  0  0  0  0  0  0
   30.9926   83.7815   51.8224 F   0  0  0  0  0  0  0  0  0  0  0  0
   29.4152   83.1666   53.2681 F   0  0  0  0  0  0  0  0  0  0  0  0
   34.0672   81.8576   50.3668 C   0  0  0  0  0  0  0  0  0  0  0  0
   33.5630   82.5662   51.5804 C   0  0  0  0  0  0  0  0  0  0  0  0
   34.7396   82.5985   52.5897 C   0  0  0  0  0  0  0  0  0  0  0  0
   35.5707   81.4576   52.0409 C   0  0  0  0  0  0  0  0  0  0  0  0
   34.7809   80.2350   52.3271 C   0  0  0  0  0  0  0  0  0  0  0  0
   36.9905   81.3921   52.5283 C   0  0  0  0  0  0  0  0  0  0  0  0
   37.2904   79.9460   52.9422 C   0  0  0  0  0  0  0  0  0  0  0  0
   37.1835   79.7326   54.2995 O   0  0  0  0  0  0  0  0  0  0  0  0
   38.7096   79.4855   52.5513 C   0  0  0  0  0  0  0  0  0  0  0  0
   39.6023   80.4836   53.0826 C   0  0  0  0  0  0  0  0  0  0  0  0
   41.0522   80.5413   52.7629 C   0  0  0  0  0  0  0  0  0  0  0  0
   41.7433   79.2776   53.1383 C   0  0  0  0  0  0  0  0  0  0  0  0
   41.5320   81.7580   53.5568 C   0  0  0  0  0  0  0  0  0  0  0  0
   42.1632   82.6976   52.7331 O   0  0  0  0  0  0  0  0  0  0  0  0
   40.5568   82.3365   54.5039 C   0  0  0  0  0  0  0  0  0  0  0  0
   39.1497   82.6034   53.9449 C   0  0  0  0  0  0  0  0  0  0  0  0
   39.0969   81.8205   52.6713 C   0  0  0  0  0  0  0  0  0  0  0  0
   39.2673   82.6284   51.5953 C   0  0  0  0  0  0  0  0  0  0  0  0
   38.0559   81.8225   51.6541 C   0  0  0  0  0  0  0  0  0  0  0  0
   37.8148   81.3946   50.3028 C   0  0  0  0  0  0  0  0  0  0  0  0
   36.4139   80.9524   49.9320 C   0  0  0  0  0  0  0  0  0  0  0  0
   35.5275   81.9288   50.5886 C   0  0  0  0  0  0  0  0  0  0  0  0
   35.9316   83.3308   50.4154 C   0  0  0  0  0  0  0  0  0  0  0  0
  1  2  1  0
  2  3  1  0
  3  4  1  0
  3  5  1  0
  5  6  1  0
  6  7  1  0
  7  8  1  0
  7  9  1  0
  9 10  1  0
  9 11  1  0
  9 12  1  0
  2 13  1  0
 13 14  1  0
 14 15  1  0
 15 16  1  0
 16 17  1  0
 16 18  1  0
 18 19  1  0
 19 20  1  0
 19 21  1  0
 21 22  1  0
 22 23  1  0
 23 24  1  0
 23 25  1  0
 25 26  1  0
 25 27  1  0
 27 28  1  0
 28 29  1  0
 29 30  1  0
 30 31  1  0
 31 32  1  0
 32 33  1  0
 33 34  1  0
 34 35  1  0
 34 13  1  0
 34 16  1  0
 31 18  1  0
 29 22  1  0
 31 29  1  0
M  END
$$$$
