
     RDKit          3D

 25 27  0  0  0  0  0  0  0  0999 V2000
   40.0578   81.5926   54.4180 C   0  0  0  0  0  0  0  0  0  0  0  0
   38.7551   80.8838   54.2031 C   0  0  0  0  0  0  0  0  0  0  0  0
   38.3211   80.7663   52.8562 N   0  0  0  0  0  0  0  0  0  0  0  0
   38.5766   79.4884   52.1257 C   0  0  0  0  0  0  0  0  0  0  0  0
   40.0245   79.3591   51.7583 C   0  0  0  0  0  0  0  0  0  0  0  0
   37.7105   81.7682   52.1067 C   0  0  0  0  0  0  0  0  0  0  0  0
   37.7765   82.9488   52.6985 O   0  0  0  0  0  0  0  0  0  0  0  0
   37.0372   81.7545   50.8311 C   0  0  0  0  0  0  0  0  0  0  0  0
   37.8259   81.9854   49.6827 C   0  0  0  0  0  0  0  0  0  0  0  0
   37.3199   81.9957   48.4186 C   0  0  0  0  0  0  0  0  0  0  0  0
   35.9646   81.7677   48.2652 C   0  0  0  0  0  0  0  0  0  0  0  0
   35.1672   81.5397   49.3850 C   0  0  0  0  0  0  0  0  0  0  0  0
   35.7155   81.5338   50.6607 C   0  0  0  0  0  0  0  0  0  0  0  0
   33.7580   81.3625   49.2678 N   0  0  0  0  0  0  0  0  0  0  0  0
   32.8355   81.1908   50.3368 C   0  0  0  0  0  0  0  0  0  0  0  0
   32.2162   82.5428   50.6310 C   0  0  0  0  0  0  0  0  0  0  0  0
   31.2775   82.4946   51.7204 N   0  0  0  0  0  0  0  0  0  0  0  0
   30.1697   81.6434   51.2587 C   0  0  0  0  0  0  0  0  0  0  0  0
   29.0269   82.6390   51.0588 C   0  0  0  0  0  0  0  0  0  0  0  0
   29.2745   83.4984   52.3114 C   0  0  0  0  0  0  0  0  0  0  0  0
   30.7693   83.7179   52.1875 C   0  0  0  0  0  0  0  0  0  0  0  0
   33.2172   81.4313   47.9346 C   0  0  0  0  0  0  0  0  0  0  0  0
   32.0046   81.1703   47.7501 O   0  0  0  0  0  0  0  0  0  0  0  0
   34.0284   81.7982   46.7437 C   0  0  0  0  0  0  0  0  0  0  0  0
   35.4023   81.7649   47.0209 O   0  0  0  0  0  0  0  0  0  0  0  0
  1  2  1  0
  2  3  1  0
  3  4  1  0
  4  5  1  0
  3  6  1  0
  6  7  2  0
  6  8  1  0
  8  9  2  0
  9 10  1  0
 10 11  2  0
 11 12  1  0
 12 13  2  0
 12 14  1  0
 14 15  1  0
 15 16  1  0
 16 17  1  0
 17 18  1  0
 18 19  1  0
 19 20  1  0
 20 21  1  0
 14 22  1  0
 22 23  2  0
 22 24  1  0
 24 25  1  0
 13  8  1  0
 21 17  1  0
 25 11  1  0
M  END
$$$$
