
     RDKit          3D

 19 21  0  0  0  0  0  0  0  0999 V2000
   -4.4357   64.9493   32.1832 C   0  0  0  0  0  0  0  0  0  0  0  0
   -3.4549   64.5759   31.2890 C   0  0  0  0  0  0  0  0  0  0  0  0
   -3.3771   63.3292   30.7156 C   0  0  0  0  0  0  0  0  0  0  0  0
   -4.3124   62.3830   31.0307 C   0  0  0  0  0  0  0  0  0  0  0  0
   -4.3094   60.9665   30.4437 B   0  0  0  0  0  3  0  0  0  0  0  0
   -5.6061   60.1627   30.6481 C   0  0  0  0  0  0  0  0  0  0  0  0
   -6.7977   60.6571   30.1452 C   0  0  0  0  0  0  0  0  0  0  0  0
   -8.0005   59.9967   30.2871 C   0  0  0  0  0  0  0  0  0  0  0  0
   -8.0169   58.7954   30.9571 C   0  0  0  0  0  0  0  0  0  0  0  0
   -6.8407   58.2526   31.4842 C   0  0  0  0  0  0  0  0  0  0  0  0
   -5.6669   58.9550   31.3132 C   0  0  0  0  0  0  0  0  0  0  0  0
   -3.0075   60.1785   30.5952 C   0  0  0  0  0  0  0  0  0  0  0  0
   -2.7672   59.1235   29.7073 C   0  0  0  0  0  0  0  0  0  0  0  0
   -1.6207   58.3630   29.7738 C   0  0  0  0  0  0  0  0  0  0  0  0
   -0.6775   58.6387   30.7359 C   0  0  0  0  0  0  0  0  0  0  0  0
   -0.8715   59.6674   31.6308 C   0  0  0  0  0  0  0  0  0  0  0  0
   -2.0319   60.4076   31.5339 C   0  0  0  0  0  0  0  0  0  0  0  0
   -5.3213   62.7307   31.9356 C   0  0  0  0  0  0  0  0  0  0  0  0
   -5.3814   63.9918   32.5016 C   0  0  0  0  0  0  0  0  0  0  0  0
  1  2  2  0
  2  3  1  0
  3  4  2  0
  4  5  1  0
  5  6  1  0
  6  7  2  0
  7  8  1  0
  8  9  2  0
  9 10  1  0
 10 11  2  0
  5 12  1  0
 12 13  2  0
 13 14  1  0
 14 15  2  0
 15 16  1  0
 16 17  2  0
  4 18  1  0
 18 19  2  0
 19  1  1  0
 11  6  1  0
 17 12  1  0
M  CHG  1   5  -1
M  RAD  1   5   2
M  END
$$$$
