
     RDKit          3D

 25 27  0  0  0  0  0  0  0  0999 V2000
   13.7546   49.4538   16.7843 C   0  0  0  0  0  0  0  0  0  0  0  0
   15.2069   49.8386   16.6674 C   0  0  0  0  0  0  0  0  0  0  0  0
   15.7904   50.0204   17.9135 O   0  0  0  0  0  0  0  0  0  0  0  0
   16.5557   49.1742   18.6511 C   0  0  0  0  0  0  0  0  0  0  0  0
   16.0558   48.7001   19.8456 C   0  0  0  0  0  0  0  0  0  0  0  0
   16.7713   47.8335   20.6581 C   0  0  0  0  0  0  0  0  0  0  0  0
   18.0156   47.4176   20.2899 C   0  0  0  0  0  0  0  0  0  0  0  0
   18.5417   47.8725   19.1045 C   0  0  0  0  0  0  0  0  0  0  0  0
   17.8166   48.7444   18.2914 C   0  0  0  0  0  0  0  0  0  0  0  0
   15.3902   51.0259   15.7748 C   0  0  0  0  0  0  0  0  0  0  0  0
   14.9429   52.1173   16.1843 O   0  0  0  0  0  0  0  0  0  0  0  0
   16.0275   50.9517   14.5357 N   0  0  0  0  0  0  0  0  0  0  0  0
   16.3237   52.0056   13.6333 C   0  0  0  0  0  0  0  0  0  0  0  0
   17.0683   51.8390   12.4958 C   0  0  0  0  0  0  0  0  0  0  0  0
   17.3506   52.8881   11.6054 C   0  0  0  0  0  0  0  0  0  0  0  0
   16.8433   54.1264   11.9159 C   0  0  0  0  0  0  0  0  0  0  0  0
   17.1672   55.4714   10.8338 Cl  0  0  0  0  0  0  0  0  0  0  0  0
   16.0902   54.3038   13.0631 C   0  0  0  0  0  0  0  0  0  0  0  0
   15.5977   55.6765   13.2903 C   0  0  0  0  0  0  0  0  0  0  0  0
   16.1594   56.3498   14.1886 O   0  0  0  0  0  0  0  0  0  0  0  0
   14.5487   56.2448   12.5562 N   0  0  0  0  0  0  0  0  0  0  0  0
   13.8543   57.4647   12.9213 C   0  0  0  0  0  0  0  0  0  0  0  0
   14.3876   58.7566   12.4334 C   0  0  0  0  0  0  0  0  0  0  0  0
   14.6736   58.3508   13.8406 C   0  0  0  0  0  0  0  0  0  0  0  0
   15.8386   53.2794   13.8936 C   0  0  0  0  0  0  0  0  0  0  0  0
  1  2  1  0
  2  3  1  0
  3  4  1  0
  4  5  2  0
  5  6  1  0
  6  7  2  0
  7  8  1  0
  8  9  2  0
  2 10  1  0
 10 11  2  0
 10 12  1  0
 12 13  1  0
 13 14  2  0
 14 15  1  0
 15 16  2  0
 16 17  1  0
 16 18  1  0
 18 19  1  0
 19 20  2  0
 19 21  1  0
 21 22  1  0
 22 23  1  0
 23 24  1  0
 18 25  2  0
  9  4  1  0
 25 13  1  0
 24 22  1  0
M  END
$$$$
