
     RDKit          3D

 27 31  0  0  0  0  0  0  0  0999 V2000
   33.7861   80.5652   50.4332 C   0  0  0  0  0  0  0  0  0  0  0  0
   34.8993   81.5053   50.1670 C   0  0  0  0  0  0  0  0  0  0  0  0
   35.8023   81.7692   51.1621 C   0  0  0  0  0  0  0  0  0  0  0  0
   35.7355   81.1803   52.4923 C   0  0  0  0  0  0  0  0  0  0  0  0
   36.4438   80.0844   52.9078 C   0  0  0  0  0  0  0  0  0  0  0  0
   36.2764   79.6340   54.2023 C   0  0  0  0  0  0  0  0  0  0  0  0
   35.4171   80.2477   55.1027 C   0  0  0  0  0  0  0  0  0  0  0  0
   34.7273   81.3394   54.6536 C   0  0  0  0  0  0  0  0  0  0  0  0
   34.8587   81.8288   53.3717 C   0  0  0  0  0  0  0  0  0  0  0  0
   36.8628   82.6527   50.9221 C   0  0  0  0  0  0  0  0  0  0  0  0
   37.0048   83.2518   49.7088 C   0  0  0  0  0  0  0  0  0  0  0  0
   36.0777   82.9636   48.7316 C   0  0  0  0  0  0  0  0  0  0  0  0
   35.0282   82.1113   48.9118 C   0  0  0  0  0  0  0  0  0  0  0  0
   34.0200   81.8017   47.9090 C   0  0  0  0  0  0  0  0  0  0  0  0
   34.1933   81.0031   46.8214 N   0  0  0  0  0  0  0  0  0  0  0  0
   33.0849   80.9316   46.0751 C   0  0  0  0  0  0  0  0  0  0  0  0
   32.7992   80.2576   44.9066 C   0  0  0  0  0  0  0  0  0  0  0  0
   31.5691   80.3871   44.3876 N   0  0  0  0  0  0  0  0  0  0  0  0
   30.6190   81.1445   44.9655 C   0  0  0  0  0  0  0  0  0  0  0  0
   30.9465   81.7976   46.1274 C   0  0  0  0  0  0  0  0  0  0  0  0
   32.1771   81.7042   46.7003 N   0  0  0  0  0  0  0  0  0  0  0  0
   32.7199   82.2482   47.8216 C   0  0  0  0  0  0  0  0  0  0  0  0
   32.0061   83.1328   48.6601 N   0  0  0  0  0  0  0  0  0  0  0  0
   30.8310   82.7992   49.3873 C   0  0  0  0  0  0  0  0  0  0  0  0
   31.0593   82.5191   50.8407 C   0  0  0  0  0  0  0  0  0  0  0  0
   29.7990   82.2145   51.6426 C   0  0  0  0  0  0  0  0  0  0  0  0
   30.8966   81.2212   51.4847 C   0  0  0  0  0  0  0  0  0  0  0  0
  1  2  1  0
  2  3  2  0
  3  4  1  0
  4  5  2  0
  5  6  1  0
  6  7  2  0
  7  8  1  0
  8  9  2  0
  3 10  1  0
 10 11  2  0
 11 12  1  0
 12 13  2  0
 13 14  1  0
 14 15  1  0
 15 16  2  0
 16 17  1  0
 17 18  2  0
 18 19  1  0
 19 20  2  0
 20 21  1  0
 21 22  1  0
 22 23  1  0
 23 24  1  0
 24 25  1  0
 25 26  1  0
 26 27  1  0
 13  2  1  0
 22 14  2  0
 27 25  1  0
  9  4  1  0
 21 16  1  0
M  END
$$$$
