
     RDKit          3D

 21 23  0  0  0  0  0  0  0  0999 V2000
   -7.9484   61.1282   30.2355 O   0  0  0  0  0  0  0  0  0  0  0  0
   -7.5317   60.1045   30.8054 C   0  0  0  0  0  0  0  0  0  0  0  0
   -6.1407   59.9346   30.9741 N   0  0  0  0  0  0  0  0  0  0  0  0
   -5.1488   60.9535   30.7359 C   0  0  0  0  0  0  0  0  0  0  0  0
   -5.0551   61.9645   31.8434 C   0  0  0  0  0  0  0  0  0  0  0  0
   -4.3896   63.2033   31.2678 C   0  0  0  0  0  0  0  0  0  0  0  0
   -2.6113   62.7522   31.1560 S   0  0  0  0  0  0  0  0  0  0  0  0
   -2.6272   60.9987   30.7714 C   0  0  0  0  0  0  0  0  0  0  0  0
   -1.3895   60.3881   30.6501 C   0  0  0  0  0  0  0  0  0  0  0  0
   -1.3038   59.0530   30.3582 C   0  0  0  0  0  0  0  0  0  0  0  0
   -2.4839   58.3573   30.1937 C   0  0  0  0  0  0  0  0  0  0  0  0
   -2.3817   57.0399   29.9059 F   0  0  0  0  0  0  0  0  0  0  0  0
   -3.7299   58.9570   30.3125 C   0  0  0  0  0  0  0  0  0  0  0  0
   -3.8118   60.3102   30.6084 C   0  0  0  0  0  0  0  0  0  0  0  0
   -8.5021   59.1504   31.2605 N   0  0  0  0  0  0  0  0  0  0  0  0
   -9.8833   59.2260   30.8418 C   0  0  0  0  0  0  0  0  0  0  0  0
  -10.7260   60.2024   31.5761 C   0  0  0  0  0  0  0  0  0  0  0  0
  -12.0148   59.6244   31.6735 O   0  0  0  0  0  0  0  0  0  0  0  0
   -8.0574   58.1229   32.1701 C   0  0  0  0  0  0  0  0  0  0  0  0
   -7.1518   57.0264   31.7916 C   0  0  0  0  0  0  0  0  0  0  0  0
   -8.6137   56.7537   32.1158 C   0  0  0  0  0  0  0  0  0  0  0  0
  1  2  2  0
  2  3  1  0
  3  4  1  0
  4  5  1  0
  5  6  1  0
  6  7  1  0
  7  8  1  0
  8  9  2  0
  9 10  1  0
 10 11  2  0
 11 12  1  0
 11 13  1  0
 13 14  2  0
  2 15  1  0
 15 16  1  0
 16 17  1  0
 17 18  1  0
 15 19  1  0
 19 20  1  0
 20 21  1  0
 14  4  1  0
 21 19  1  0
 14  8  1  0
M  END
$$$$
