
     RDKit          3D

 38 43  0  0  0  0  0  0  0  0999 V2000
   12.5238   47.9304   17.1423 N   0  0  0  0  0  0  0  0  0  0  0  0
   13.4648   48.5848   16.8906 C   0  0  0  0  0  0  0  0  0  0  0  0
   14.6355   49.3923   16.6034 C   0  0  0  0  0  0  0  0  0  0  0  0
   15.2886   49.1872   15.3766 C   0  0  0  0  0  0  0  0  0  0  0  0
   16.4261   49.8799   15.0593 C   0  0  0  0  0  0  0  0  0  0  0  0
   16.9390   50.7959   15.9597 C   0  0  0  0  0  0  0  0  0  0  0  0
   18.2576   51.4631   15.5657 C   0  0  0  0  0  0  0  0  0  0  0  0
   19.2427   51.0463   16.5888 C   0  0  0  0  0  0  0  0  0  0  0  0
   19.8657   49.7248   16.7147 C   0  0  0  0  0  0  0  0  0  0  0  0
   19.6081   48.8134   15.8540 O   0  0  0  0  0  0  0  0  0  0  0  0
   20.7592   49.3463   17.7489 N   0  0  0  0  0  0  0  0  0  0  0  0
   21.6318   48.2142   17.6440 C   0  0  0  0  0  0  0  0  0  0  0  0
   23.0566   48.4257   17.2670 C   0  0  0  0  0  0  0  0  0  0  0  0
   23.3721   47.2262   18.1764 C   0  0  0  0  0  0  0  0  0  0  0  0
   22.1565   47.7002   18.9928 C   0  0  0  0  0  0  0  0  0  0  0  0
   19.4943   52.0819   17.3645 C   0  0  0  0  0  0  0  0  0  0  0  0
   20.3712   52.0356   18.4533 O   0  0  0  0  0  0  0  0  0  0  0  0
   18.7629   53.2626   16.9172 C   0  0  0  0  0  0  0  0  0  0  0  0
   18.8015   54.3895   17.4826 O   0  0  0  0  0  0  0  0  0  0  0  0
   18.0257   52.9087   15.7685 N   0  0  0  0  0  0  0  0  0  0  0  0
   17.2231   53.7770   14.9951 C   0  0  0  0  0  0  0  0  0  0  0  0
   16.0023   54.2041   15.4230 C   0  0  0  0  0  0  0  0  0  0  0  0
   15.2123   55.0908   14.6753 C   0  0  0  0  0  0  0  0  0  0  0  0
   15.6838   55.5480   13.4690 C   0  0  0  0  0  0  0  0  0  0  0  0
   14.8816   56.4552   12.6349 C   0  0  0  0  0  0  0  0  0  0  0  0
   15.4589   57.4926   11.9469 C   0  0  0  0  0  0  0  0  0  0  0  0
   14.7624   58.3429   11.1502 C   0  0  0  0  0  0  0  0  0  0  0  0
   13.3720   58.1794   10.9976 C   0  0  0  0  0  0  0  0  0  0  0  0
   12.8151   57.1410   11.6881 C   0  0  0  0  0  0  0  0  0  0  0  0
   13.5097   56.2724   12.5012 C   0  0  0  0  0  0  0  0  0  0  0  0
   11.0571   57.1710   11.2322 S   0  0  0  0  0  0  0  0  0  0  0  0
   11.3289   58.1408    9.6809 C   0  0  0  0  0  0  0  0  0  0  0  0
   12.4719   59.0044   10.2122 C   0  0  0  0  0  0  0  0  0  0  0  0
   16.9193   55.1365   13.0024 C   0  0  0  0  0  0  0  0  0  0  0  0
   17.6596   54.2602   13.7784 C   0  0  0  0  0  0  0  0  0  0  0  0
   16.3020   50.9942   17.1464 C   0  0  0  0  0  0  0  0  0  0  0  0
   15.1483   50.3017   17.4840 C   0  0  0  0  0  0  0  0  0  0  0  0
   14.5160   50.5108   18.6792 F   0  0  0  0  0  0  0  0  0  0  0  0
  1  2  3  0
  2  3  1  0
  3  4  2  0
  4  5  1  0
  5  6  2  0
  6  7  1  0
  7  8  1  0
  8  9  1  0
  9 10  2  0
  9 11  1  0
 11 12  1  0
 12 13  1  0
 13 14  1  0
 14 15  1  0
  8 16  2  0
 16 17  1  0
 16 18  1  0
 18 19  2  0
 18 20  1  0
 20 21  1  0
 21 22  2  0
 22 23  1  0
 23 24  2  0
 24 25  1  0
 25 26  2  0
 26 27  1  0
 27 28  2  0
 28 29  1  0
 29 30  2  0
 29 31  1  0
 31 32  1  0
 32 33  1  0
 24 34  1  0
 34 35  2  0
  6 36  1  0
 36 37  2  0
 37 38  1  0
 37  3  1  0
 20  7  1  0
 35 21  1  0
 15 12  1  0
 30 25  1  0
 33 28  1  0
M  END
$$$$
