
     RDKit          3D

 25 27  0  0  0  0  0  0  0  0999 V2000
   13.2358   98.3000   55.5769 C   0  0  0  0  0  0  0  0  0  0  0  0
   13.5668   98.2478   57.0449 C   0  0  0  0  0  0  0  0  0  0  0  0
   12.6548   98.9727   57.8721 N   0  0  0  0  0  0  0  0  0  0  0  0
   12.1113   98.5956   59.0379 C   0  0  0  0  0  0  0  0  0  0  0  0
   12.3131   97.3498   59.7739 C   0  0  0  0  0  0  0  0  0  0  0  0
   10.9747   96.6749   59.9985 C   0  0  0  0  0  0  0  0  0  0  0  0
   10.7753   96.4652   61.4725 C   0  0  0  0  0  0  0  0  0  0  0  0
   11.5560   95.3602   61.9318 N   0  0  0  0  0  0  0  0  0  0  0  0
   11.5867   95.0080   63.2921 C   0  0  0  0  0  0  0  0  0  0  0  0
   11.0278   95.7390   64.1376 O   0  0  0  0  0  0  0  0  0  0  0  0
   12.2542   93.8049   63.7710 C   0  0  0  0  0  0  0  0  0  0  0  0
   11.6026   92.8003   64.4683 C   0  0  0  0  0  0  0  0  0  0  0  0
   12.2949   91.6782   64.8970 C   0  0  0  0  0  0  0  0  0  0  0  0
   11.6592   90.6967   65.5783 F   0  0  0  0  0  0  0  0  0  0  0  0
   13.6402   91.5216   64.6489 C   0  0  0  0  0  0  0  0  0  0  0  0
   14.2783   92.5278   63.9540 C   0  0  0  0  0  0  0  0  0  0  0  0
   13.6086   93.6512   63.5191 C   0  0  0  0  0  0  0  0  0  0  0  0
   14.4554   94.8904   62.6489 Cl  0  0  0  0  0  0  0  0  0  0  0  0
   11.3124   99.6046   59.4489 N   0  0  0  0  0  0  0  0  0  0  0  0
   11.3307  100.6200   58.5743 C   0  0  0  0  0  0  0  0  0  0  0  0
   10.6851  101.8446   58.5655 C   0  0  0  0  0  0  0  0  0  0  0  0
   10.9143  102.6913   57.5011 C   0  0  0  0  0  0  0  0  0  0  0  0
   11.7658  102.2969   56.4955 C   0  0  0  0  0  0  0  0  0  0  0  0
   12.4057  101.0691   56.5159 C   0  0  0  0  0  0  0  0  0  0  0  0
   12.1869  100.2118   57.5730 C   0  0  0  0  0  0  0  0  0  0  0  0
  1  2  1  0
  2  3  1  0
  3  4  1  0
  4  5  1  0
  5  6  1  0
  6  7  1  0
  7  8  1  0
  8  9  1  0
  9 10  2  0
  9 11  1  0
 11 12  2  0
 12 13  1  0
 13 14  1  0
 13 15  2  0
 15 16  1  0
 16 17  2  0
 17 18  1  0
  4 19  2  0
 19 20  1  0
 20 21  2  0
 21 22  1  0
 22 23  2  0
 23 24  1  0
 24 25  2  0
 25  3  1  0
 17 11  1  0
 25 20  1  0
M  END
$$$$
