
     RDKit          3D

 26 28  0  0  0  0  0  0  0  0999 V2000
   12.4742   92.0551   66.2766 C   0  0  0  0  0  0  0  0  0  0  0  0
   12.8906   92.7516   65.0198 C   0  0  0  0  0  0  0  0  0  0  0  0
   14.0082   92.4977   64.2598 C   0  0  0  0  0  0  0  0  0  0  0  0
   13.9628   93.3816   63.2030 C   0  0  0  0  0  0  0  0  0  0  0  0
   14.9728   93.4649   62.1232 C   0  0  0  0  0  0  0  0  0  0  0  0
   12.8570   94.1259   63.3411 N   0  0  0  0  0  0  0  0  0  0  0  0
   12.3904   95.1720   62.4856 C   0  0  0  0  0  0  0  0  0  0  0  0
   13.1683   95.7182   61.5355 N   0  0  0  0  0  0  0  0  0  0  0  0
   12.7189   96.6993   60.7386 N   0  0  0  0  0  0  0  0  0  0  0  0
   11.4789   97.1928   60.8368 C   0  0  0  0  0  0  0  0  0  0  0  0
   10.9026   98.4860   59.7682 S   0  0  0  0  0  0  0  0  0  0  0  0
   12.0338   98.7874   58.4501 C   0  0  0  0  0  0  0  0  0  0  0  0
   11.5915   98.6078   57.0698 C   0  0  0  0  0  0  0  0  0  0  0  0
   10.3410   98.1789   57.0254 O   0  0  0  0  0  0  0  0  0  0  0  0
   12.2492   98.8046   55.8498 N   0  0  0  0  0  0  0  0  0  0  0  0
   11.7227   98.4308   54.5765 C   0  0  0  0  0  0  0  0  0  0  0  0
   13.5582   99.4344   55.8633 C   0  0  0  0  0  0  0  0  0  0  0  0
   14.5897   98.5141   56.4722 C   0  0  0  0  0  0  0  0  0  0  0  0
   15.7854   99.4068   56.8178 C   0  0  0  0  0  0  0  0  0  0  0  0
   16.3292   99.9914   55.5565 C   0  0  0  0  0  0  0  0  0  0  0  0
   15.3144  100.6489   54.6689 C   0  0  0  0  0  0  0  0  0  0  0  0
   14.0469   99.8431   54.5026 C   0  0  0  0  0  0  0  0  0  0  0  0
   10.6620   96.6563   61.7956 N   0  0  0  0  0  0  0  0  0  0  0  0
   11.1128   95.6762   62.5911 C   0  0  0  0  0  0  0  0  0  0  0  0
   10.2724   95.0981   63.6034 N   0  0  0  0  0  0  0  0  0  0  0  0
   12.2053   93.7491   64.4378 N   0  0  0  0  0  0  0  0  0  0  0  0
  1  2  1  0
  2  3  1  0
  3  4  2  0
  4  5  1  0
  4  6  1  0
  6  7  1  0
  7  8  2  0
  8  9  1  0
  9 10  2  0
 10 11  1  0
 11 12  1  0
 12 13  1  0
 13 14  2  0
 13 15  1  0
 15 16  1  0
 15 17  1  0
 17 18  1  0
 18 19  1  0
 19 20  1  0
 20 21  1  0
 21 22  1  0
 10 23  1  0
 23 24  2  0
 24 25  1  0
  6 26  1  0
 26  2  2  0
 24  7  1  0
 22 17  1  0
M  END
$$$$
