
     RDKit          3D

 41 44  0  0  0  0  0  0  0  0999 V2000
   20.0294   55.5008   14.6038 C   0  0  0  0  0  0  0  0  0  0  0  0
   19.6699   54.0678   14.5476 C   0  0  2  0  0  0  0  0  0  0  0  0
   20.9649   53.2607   14.8061 C   0  0  0  0  0  0  0  0  0  0  0  0
   20.6668   52.0736   15.5813 N   0  0  0  0  0  0  0  0  0  0  0  0
   21.8671   51.4232   16.0590 C   0  0  2  0  0  0  0  0  0  0  0  0
   22.3614   52.2297   17.2491 C   0  0  0  0  0  0  0  0  0  0  0  0
   22.9561   51.3606   15.0166 C   0  0  0  0  0  0  0  0  0  0  0  0
   22.5238   50.8521   13.8185 O   0  0  0  0  0  0  0  0  0  0  0  0
   19.5132   51.3497   16.0204 C   0  0  0  0  0  0  0  0  0  0  0  0
   19.7617   50.2796   16.6319 O   0  0  0  0  0  0  0  0  0  0  0  0
   18.0776   51.5772   15.9172 C   0  0  0  0  0  0  0  0  0  0  0  0
   17.5233   50.8708   16.9624 C   0  0  0  0  0  0  0  0  0  0  0  0
   16.1456   50.8581   17.1837 C   0  0  0  0  0  0  0  0  0  0  0  0
   15.6819   50.1041   18.2812 N   0  0  0  0  0  0  0  0  0  0  0  0
   14.4014   49.5804   18.4950 C   0  0  0  0  0  0  0  0  0  0  0  0
   13.4813   49.8982   17.7064 O   0  0  0  0  0  0  0  0  0  0  0  0
   14.0731   48.6664   19.6080 C   0  0  0  0  0  0  0  0  0  0  0  0
   12.8168   48.1721   19.8396 C   0  0  0  0  0  0  0  0  0  0  0  0
   12.5367   47.3073   20.9030 C   0  0  0  0  0  0  0  0  0  0  0  0
   13.5432   46.9574   21.7177 N   0  0  0  0  0  0  0  0  0  0  0  0
   14.7845   47.4111   21.5355 C   0  0  0  0  0  0  0  0  0  0  0  0
   15.0664   48.2699   20.4806 C   0  0  0  0  0  0  0  0  0  0  0  0
   15.3922   51.5823   16.3079 C   0  0  0  0  0  0  0  0  0  0  0  0
   15.9409   52.3062   15.2394 C   0  0  0  0  0  0  0  0  0  0  0  0
   17.2841   52.3008   15.0480 C   0  0  0  0  0  0  0  0  0  0  0  0
   17.5565   53.0957   13.9227 O   0  0  0  0  0  0  0  0  0  0  0  0
   18.8797   53.5262   13.4546 C   0  0  1  0  0  0  0  0  0  0  0  0
   18.7061   54.1021   12.1372 C   0  0  0  0  0  0  0  0  0  0  0  0
   17.9247   55.2412   11.8953 N   0  0  0  0  0  0  0  0  0  0  0  0
   18.5882   56.3605   11.1891 C   0  0  0  0  0  0  0  0  0  0  0  0
   16.5597   55.4756   12.2377 C   0  0  0  0  0  0  0  0  0  0  0  0
   15.7808   54.4954   12.3362 O   0  0  0  0  0  0  0  0  0  0  0  0
   16.0279   56.7523   12.4685 N   0  0  0  0  0  0  0  0  0  0  0  0
   14.7071   57.1527   12.7670 C   0  0  0  0  0  0  0  0  0  0  0  0
   13.7040   56.3404   12.2088 C   0  0  0  0  0  0  0  0  0  0  0  0
   12.3836   56.6081   12.3879 C   0  0  0  0  0  0  0  0  0  0  0  0
   11.4700   55.7607   11.8069 F   0  0  0  0  0  0  0  0  0  0  0  0
   11.9520   57.6893   13.1258 C   0  0  0  0  0  0  0  0  0  0  0  0
   12.9328   58.4753   13.6653 C   0  0  0  0  0  0  0  0  0  0  0  0
   14.3052   58.2214   13.4953 C   0  0  0  0  0  0  0  0  0  0  0  0
   15.1922   59.0564   14.0394 F   0  0  0  0  0  0  0  0  0  0  0  0
  2  1  1  6
  2  3  1  0
  3  4  1  0
  4  5  1  0
  5  6  1  1
  5  7  1  0
  7  8  1  0
  4  9  1  0
  9 10  2  0
  9 11  1  0
 11 12  2  0
 12 13  1  0
 13 14  1  0
 14 15  1  0
 15 16  2  0
 15 17  1  0
 17 18  2  0
 18 19  1  0
 19 20  2  0
 20 21  1  0
 21 22  2  0
 13 23  2  0
 23 24  1  0
 24 25  2  0
 25 26  1  0
 26 27  1  0
 27 28  1  6
 28 29  1  0
 29 30  1  0
 29 31  1  0
 31 32  2  0
 31 33  1  0
 33 34  1  0
 34 35  2  0
 35 36  1  0
 36 37  1  0
 36 38  2  0
 38 39  1  0
 39 40  2  0
 40 41  1  0
 27  2  1  0
 40 34  1  0
 25 11  1  0
 22 17  1  0
M  END
$$$$
