
     RDKit          3D

 21 23  0  0  0  0  0  0  0  0999 V2000
   11.1009   98.7612   62.3844 N   0  0  0  0  0  0  0  0  0  0  0  0
   11.2889   98.9534   61.2577 C   0  0  0  0  0  0  0  0  0  0  0  0
   11.5348   99.1782   59.8666 C   0  0  0  0  0  0  0  0  0  0  0  0
   10.6154   99.8056   59.0404 C   0  0  0  0  0  0  0  0  0  0  0  0
   10.9200   99.9874   57.7142 C   0  0  0  0  0  0  0  0  0  0  0  0
   12.1140   99.5615   57.1905 C   0  0  0  0  0  0  0  0  0  0  0  0
   12.4215   99.7577   55.8001 N   0  0  0  0  0  0  0  0  0  0  0  0
   11.6272   99.6565   54.7483 N   0  0  0  0  0  0  0  0  0  0  0  0
   12.2929   99.9174   53.6135 C   0  0  0  0  0  0  0  0  0  0  0  0
   13.5996  100.2042   53.9647 C   0  0  0  0  0  0  0  0  0  0  0  0
   14.7232  100.5439   53.2007 C   0  0  0  0  0  0  0  0  0  0  0  0
   14.6164  100.6573   51.8014 N   0  0  0  0  0  0  0  0  0  0  0  0
   15.6935  101.0619   50.9657 C   0  0  0  0  0  0  0  0  0  0  0  0
   16.6817   99.9688   50.6812 C   0  0  0  0  0  0  0  0  0  0  0  0
   18.0349  100.3135   50.9443 N   0  0  0  0  0  0  0  0  0  0  0  0
   15.8417  100.7537   53.9110 N   0  0  0  0  0  0  0  0  0  0  0  0
   15.9278  100.6578   55.2483 C   0  0  0  0  0  0  0  0  0  0  0  0
   14.8230  100.3288   55.9421 N   0  0  0  0  0  0  0  0  0  0  0  0
   13.6391  100.0939   55.3379 C   0  0  0  0  0  0  0  0  0  0  0  0
   12.9825   98.9564   58.0220 N   0  0  0  0  0  0  0  0  0  0  0  0
   12.7253   98.7578   59.3272 C   0  0  0  0  0  0  0  0  0  0  0  0
  1  2  3  0
  2  3  1  0
  3  4  2  0
  4  5  1  0
  5  6  2  0
  6  7  1  0
  7  8  1  0
  8  9  2  0
  9 10  1  0
 10 11  2  0
 11 12  1  0
 12 13  1  0
 13 14  1  0
 14 15  1  0
 11 16  1  0
 16 17  2  0
 17 18  1  0
 18 19  2  0
  6 20  1  0
 20 21  2  0
 21  3  1  0
 19  7  1  0
 19 10  1  0
M  END
$$$$
