
     RDKit          3D

 24 26  0  0  0  0  0  0  0  0999 V2000
   18.2174   49.4458   18.4106 C   0  0  0  0  0  0  0  0  0  0  0  0
   16.7530   49.2824   18.4453 N   0  0  0  0  0  0  0  0  0  0  0  0
   16.0058   50.0105   17.4844 C   0  0  0  0  0  0  0  0  0  0  0  0
   16.6272   50.7238   16.5073 N   0  0  0  0  0  0  0  0  0  0  0  0
   15.9297   51.4297   15.5997 C   0  0  0  0  0  0  0  0  0  0  0  0
   16.5803   52.1731   14.5542 N   0  0  0  0  0  0  0  0  0  0  0  0
   15.9590   53.3614   14.1290 C   0  0  0  0  0  0  0  0  0  0  0  0
   14.8870   53.8219   14.8185 N   0  0  0  0  0  0  0  0  0  0  0  0
   14.2564   54.9476   14.4777 C   0  0  0  0  0  0  0  0  0  0  0  0
   14.6912   55.6446   13.4260 N   0  0  0  0  0  0  0  0  0  0  0  0
   15.7420   55.2203   12.7260 N   0  0  0  0  0  0  0  0  0  0  0  0
   16.3060   55.7907   11.6503 C   0  0  0  0  0  0  0  0  0  0  0  0
   17.3584   55.0235   11.2470 C   0  0  0  0  0  0  0  0  0  0  0  0
   17.4229   53.9348   12.1345 C   0  0  0  0  0  0  0  0  0  0  0  0
   18.4179   52.8554   12.0701 C   0  0  0  0  0  0  0  0  0  0  0  0
   19.4763   53.1084   12.9260 O   0  0  0  0  0  0  0  0  0  0  0  0
   16.4118   54.0805   13.0397 C   0  0  0  0  0  0  0  0  0  0  0  0
   14.5904   51.4118   15.6848 N   0  0  0  0  0  0  0  0  0  0  0  0
   13.9135   50.7306   16.6209 C   0  0  0  0  0  0  0  0  0  0  0  0
   14.6381   49.9986   17.5611 C   0  0  0  0  0  0  0  0  0  0  0  0
   13.9608   49.2279   18.6012 C   0  0  0  0  0  0  0  0  0  0  0  0
   14.3558   49.5856   19.8788 F   0  0  0  0  0  0  0  0  0  0  0  0
   14.3136   47.8900   18.4370 F   0  0  0  0  0  0  0  0  0  0  0  0
   12.5876   49.2983   18.4778 F   0  0  0  0  0  0  0  0  0  0  0  0
  1  2  1  0
  2  3  1  0
  3  4  2  0
  4  5  1  0
  5  6  1  0
  6  7  1  0
  7  8  2  0
  8  9  1  0
  9 10  2  0
 10 11  1  0
 11 12  1  0
 12 13  2  0
 13 14  1  0
 14 15  1  0
 15 16  1  0
 14 17  2  0
  5 18  2  0
 18 19  1  0
 19 20  2  0
 20 21  1  0
 21 22  1  0
 21 23  1  0
 21 24  1  0
 20  3  1  0
 17  7  1  0
 17 11  1  0
M  END
$$$$
