
     RDKit          3D

 27 29  0  0  0  0  0  0  0  0999 V2000
   18.5938   46.8564   19.8227 C   0  0  0  0  0  0  0  0  0  0  0  0
   18.5695   47.9111   18.7773 C   0  0  0  0  0  0  0  0  0  0  0  0
   19.7336   48.1362   18.0651 C   0  0  0  0  0  0  0  0  0  0  0  0
   19.6750   49.1222   17.1032 C   0  0  0  0  0  0  0  0  0  0  0  0
   18.5399   49.8574   16.8426 C   0  0  0  0  0  0  0  0  0  0  0  0
   18.4862   50.8957   15.8338 C   0  0  0  0  0  0  0  0  0  0  0  0
   19.2121   50.8416   14.7788 N   0  0  0  0  0  0  0  0  0  0  0  0
   19.4324   51.9578   14.0219 O   0  0  0  0  0  0  0  0  0  0  0  0
   17.6119   52.0353   15.9709 N   0  0  0  0  0  0  0  0  0  0  0  0
   17.4325   53.0489   14.9787 C   0  0  0  0  0  0  0  0  0  0  0  0
   16.4646   52.3727   13.9627 C   0  0  0  0  0  0  0  0  0  0  0  0
   16.3107   53.2357   12.7551 C   0  0  0  0  0  0  0  0  0  0  0  0
   15.8061   54.5907   13.1929 C   0  0  0  0  0  0  0  0  0  0  0  0
   14.6552   54.9676   12.2981 C   0  0  0  0  0  0  0  0  0  0  0  0
   15.4151   54.5329   14.6490 C   0  0  0  0  0  0  0  0  0  0  0  0
   16.7088   54.2583   15.4296 C   0  0  0  0  0  0  0  0  0  0  0  0
   17.3821   49.5948   17.5885 C   0  0  0  0  0  0  0  0  0  0  0  0
   16.2711   50.3251   17.3172 O   0  0  0  0  0  0  0  0  0  0  0  0
   14.9760   49.9560   17.5536 C   0  0  0  0  0  0  0  0  0  0  0  0
   13.8616   50.2886   16.8382 C   0  0  0  0  0  0  0  0  0  0  0  0
   12.5726   49.8653   17.1545 C   0  0  0  0  0  0  0  0  0  0  0  0
   11.2126   50.3442   16.1770 Cl  0  0  0  0  0  0  0  0  0  0  0  0
   12.3734   49.0655   18.2430 C   0  0  0  0  0  0  0  0  0  0  0  0
   13.4687   48.7128   18.9830 C   0  0  0  0  0  0  0  0  0  0  0  0
   14.7297   49.1305   18.6687 C   0  0  0  0  0  0  0  0  0  0  0  0
   16.2129   48.6034   19.7590 Br  0  0  0  0  0  0  0  0  0  0  0  0
   17.4663   48.6223   18.5269 N   0  0  0  0  0  0  0  0  0  0  0  0
  1  2  1  0
  2  3  2  0
  3  4  1  0
  4  5  2  0
  5  6  1  0
  6  7  2  0
  7  8  1  0
  6  9  1  0
  9 10  1  0
 10 11  1  0
 11 12  1  0
 12 13  1  0
 13 14  1  0
 13 15  1  0
 15 16  1  0
  5 17  1  0
 17 18  1  0
 18 19  1  0
 19 20  2  0
 20 21  1  0
 21 22  1  0
 21 23  2  0
 23 24  1  0
 24 25  2  0
 25 26  1  0
 17 27  2  0
 27  2  1  0
 16 10  1  0
 25 19  1  0
M  END
$$$$
