
     RDKit          3D

 33 37  0  0  0  0  0  0  0  0999 V2000
   35.0031   81.5734   52.8683 C   0  0  0  0  0  0  0  0  0  0  0  0
   35.3726   81.5160   51.4526 C   0  0  0  0  0  0  0  0  0  0  0  0
   36.6892   81.3350   51.0838 C   0  0  0  0  0  0  0  0  0  0  0  0
   37.7054   81.2250   52.1226 C   0  0  0  0  0  0  0  0  0  0  0  0
   37.9161   80.0236   52.7638 C   0  0  0  0  0  0  0  0  0  0  0  0
   38.8751   79.8380   53.7301 C   0  0  0  0  0  0  0  0  0  0  0  0
   39.6405   80.9716   54.0277 C   0  0  0  0  0  0  0  0  0  0  0  0
   39.4502   82.1746   53.4058 C   0  0  0  0  0  0  0  0  0  0  0  0
   40.2223   83.2834   53.7283 C   0  0  0  0  0  0  0  0  0  0  0  0
   39.9861   84.4936   53.0703 C   0  0  0  0  0  0  0  0  0  0  0  0
   39.0033   84.6018   52.1114 C   0  0  0  0  0  0  0  0  0  0  0  0
   38.2481   83.5190   51.7950 C   0  0  0  0  0  0  0  0  0  0  0  0
   38.4653   82.3224   52.4295 C   0  0  0  0  0  0  0  0  0  0  0  0
   37.0201   81.2835   49.7908 N   0  0  0  0  0  0  0  0  0  0  0  0
   36.1247   81.4004   48.7605 C   0  0  0  0  0  0  0  0  0  0  0  0
   36.5812   81.3831   47.4359 N   0  0  0  0  0  0  0  0  0  0  0  0
   35.5926   81.7746   46.4068 C   0  0  0  0  0  0  0  0  0  0  0  0
   36.2192   81.4557   45.0736 C   0  0  0  0  0  0  0  0  0  0  0  0
   37.4203   82.0718   44.8340 O   0  0  0  0  0  0  0  0  0  0  0  0
   38.2561   82.1267   45.9461 C   0  0  0  0  0  0  0  0  0  0  0  0
   37.8438   80.9985   46.8948 C   0  0  0  0  0  0  0  0  0  0  0  0
   34.8182   81.5786   49.1408 C   0  0  0  0  0  0  0  0  0  0  0  0
   33.7412   81.6838   48.1741 C   0  0  0  0  0  0  0  0  0  0  0  0
   32.8706   81.7710   47.4139 N   0  0  0  0  0  0  0  0  0  0  0  0
   34.4242   81.6399   50.4631 C   0  0  0  0  0  0  0  0  0  0  0  0
   33.0488   81.8563   50.8138 C   0  0  0  0  0  0  0  0  0  0  0  0
   32.1191   80.9344   51.1671 C   0  0  0  0  0  0  0  0  0  0  0  0
   30.8236   81.2932   51.4744 C   0  0  0  0  0  0  0  0  0  0  0  0
   30.4024   82.6195   51.4378 C   0  0  0  0  0  0  0  0  0  0  0  0
   29.0597   82.9878   51.7708 C   0  0  0  0  0  0  0  0  0  0  0  0
   27.9850   83.2783   52.0183 N   0  0  0  0  0  0  0  0  0  0  0  0
   31.3364   83.5671   51.0800 C   0  0  0  0  0  0  0  0  0  0  0  0
   32.6191   83.1955   50.7777 C   0  0  0  0  0  0  0  0  0  0  0  0
  1  2  1  0
  2  3  2  0
  3  4  1  0
  4  5  2  0
  5  6  1  0
  6  7  2  0
  7  8  1  0
  8  9  2  0
  9 10  1  0
 10 11  2  0
 11 12  1  0
 12 13  2  0
  3 14  1  0
 14 15  2  0
 15 16  1  0
 16 17  1  0
 17 18  1  0
 18 19  1  0
 19 20  1  0
 20 21  1  0
 15 22  1  0
 22 23  1  0
 23 24  3  0
 22 25  2  0
 25 26  1  0
 26 27  2  0
 27 28  1  0
 28 29  2  0
 29 30  1  0
 30 31  3  0
 29 32  1  0
 32 33  2  0
 25  2  1  0
 33 26  1  0
 13  4  1  0
 21 16  1  0
 13  8  1  0
M  END
$$$$
