
     RDKit          3D

 31 33  0  0  0  0  0  0  0  0999 V2000
   12.0750   99.4812   54.7516 C   0  0  0  0  0  0  0  0  0  0  0  0
   12.1433  100.5979   55.7107 C   0  0  0  0  0  0  0  0  0  0  0  0
   12.9990  101.6637   55.5194 C   0  0  0  0  0  0  0  0  0  0  0  0
   13.1058  102.7265   56.3750 C   0  0  0  0  0  0  0  0  0  0  0  0
   12.2794  102.6927   57.5011 C   0  0  0  0  0  0  0  0  0  0  0  0
   11.4106  101.6440   57.7268 C   0  0  0  0  0  0  0  0  0  0  0  0
   10.5484  101.6720   58.9612 C   0  0  0  0  0  0  0  0  0  0  0  0
   11.3308  100.5912   56.8429 C   0  0  0  0  0  0  0  0  0  0  0  0
   10.3795   99.4858   57.1337 C   0  0  0  0  0  0  0  0  0  0  0  0
   11.1339   98.4727   57.8797 N   0  0  0  0  0  0  0  0  0  0  0  0
   10.5154   97.5466   58.7632 C   0  0  0  0  0  0  0  0  0  0  0  0
    9.3298   97.1251   58.5123 N   0  0  0  0  0  0  0  0  0  0  0  0
    8.5673   97.6541   57.5277 O   0  0  0  0  0  0  0  0  0  0  0  0
   11.1894   97.0502   59.9652 C   0  0  0  0  0  0  0  0  0  0  0  0
   12.2019   97.7426   60.5946 C   0  0  0  0  0  0  0  0  0  0  0  0
   12.8470   97.2871   61.7288 C   0  0  0  0  0  0  0  0  0  0  0  0
   12.4821   96.0930   62.2734 C   0  0  0  0  0  0  0  0  0  0  0  0
   13.0691   95.5573   63.4073 O   0  0  0  0  0  0  0  0  0  0  0  0
   13.1683   94.2104   63.6224 C   0  0  0  0  0  0  0  0  0  0  0  0
   14.3258   93.5422   63.3035 C   0  0  0  0  0  0  0  0  0  0  0  0
   14.4743   92.2007   63.5001 C   0  0  0  0  0  0  0  0  0  0  0  0
   15.7361   91.4828   63.1501 C   0  0  0  0  0  0  0  0  0  0  0  0
   15.8492   90.3848   63.9743 F   0  0  0  0  0  0  0  0  0  0  0  0
   15.7445   91.0816   61.8465 F   0  0  0  0  0  0  0  0  0  0  0  0
   16.8308   92.3082   63.3410 F   0  0  0  0  0  0  0  0  0  0  0  0
   13.4331   91.4714   64.0387 C   0  0  0  0  0  0  0  0  0  0  0  0
   12.2475   92.1010   64.3763 C   0  0  0  0  0  0  0  0  0  0  0  0
   12.1431   93.4606   64.1597 C   0  0  0  0  0  0  0  0  0  0  0  0
   10.6257   94.2160   64.6355 Cl  0  0  0  0  0  0  0  0  0  0  0  0
   11.4787   95.3927   61.6620 N   0  0  0  0  0  0  0  0  0  0  0  0
   10.8520   95.8360   60.5598 C   0  0  0  0  0  0  0  0  0  0  0  0
  1  2  1  0
  2  3  2  0
  3  4  1  0
  4  5  2  0
  5  6  1  0
  6  7  1  0
  6  8  2  0
  8  9  1  0
  9 10  1  0
 10 11  1  0
 11 12  2  0
 12 13  1  0
 11 14  1  0
 14 15  2  0
 15 16  1  0
 16 17  2  0
 17 18  1  0
 18 19  1  0
 19 20  2  0
 20 21  1  0
 21 22  1  0
 22 23  1  0
 22 24  1  0
 22 25  1  0
 21 26  2  0
 26 27  1  0
 27 28  2  0
 28 29  1  0
 17 30  1  0
 30 31  2  0
  8  2  1  0
 31 14  1  0
 28 19  1  0
M  END
$$$$
