
     RDKit          3D

 22 24  0  0  0  0  0  0  0  0999 V2000
   15.3771   92.3235   63.7324 C   0  0  0  0  0  0  0  0  0  0  0  0
   14.0868   92.9694   63.5296 N   0  0  0  0  0  0  0  0  0  0  0  0
   13.8618   94.0550   62.7804 C   0  0  0  0  0  0  0  0  0  0  0  0
   12.5144   94.3211   62.8683 C   0  0  0  0  0  0  0  0  0  0  0  0
   11.7529   95.3542   62.2702 N   0  0  0  0  0  0  0  0  0  0  0  0
   12.2754   96.4135   61.4886 C   0  0  0  0  0  0  0  0  0  0  0  0
   13.5169   96.4468   61.3076 O   0  0  0  0  0  0  0  0  0  0  0  0
   11.4144   97.4477   60.9005 C   0  0  0  0  0  0  0  0  0  0  0  0
   11.7560   98.7056   60.4596 C   0  0  0  0  0  0  0  0  0  0  0  0
   10.6235   99.2923   59.9988 N   0  0  0  0  0  0  0  0  0  0  0  0
   10.5563  100.6296   59.4451 C   0  0  0  0  0  0  0  0  0  0  0  0
   11.2921  100.6102   58.1569 C   0  0  0  0  0  0  0  0  0  0  0  0
   11.7510  101.7735   57.5794 C   0  0  0  0  0  0  0  0  0  0  0  0
   12.4306  101.6971   56.3783 C   0  0  0  0  0  0  0  0  0  0  0  0
   12.6516  100.4778   55.7579 C   0  0  0  0  0  0  0  0  0  0  0  0
   12.1784   99.3505   56.3673 C   0  0  0  0  0  0  0  0  0  0  0  0
   12.4589   97.6377   55.5481 Br  0  0  0  0  0  0  0  0  0  0  0  0
   11.4966   99.3848   57.5642 C   0  0  0  0  0  0  0  0  0  0  0  0
    9.5881   98.4465   60.1361 C   0  0  0  0  0  0  0  0  0  0  0  0
   10.0935   97.3315   60.6865 N   0  0  0  0  0  0  0  0  0  0  0  0
   11.9857   93.3522   63.6902 C   0  0  0  0  0  0  0  0  0  0  0  0
   12.9665   92.5453   64.0762 N   0  0  0  0  0  0  0  0  0  0  0  0
  1  2  1  0
  2  3  1  0
  3  4  2  0
  4  5  1  0
  5  6  1  0
  6  7  2  0
  6  8  1  0
  8  9  2  0
  9 10  1  0
 10 11  1  0
 11 12  1  0
 12 13  2  0
 13 14  1  0
 14 15  2  0
 15 16  1  0
 16 17  1  0
 16 18  2  0
 10 19  1  0
 19 20  2  0
  4 21  1  0
 21 22  2  0
 22  2  1  0
 20  8  1  0
 18 12  1  0
M  END
$$$$
