
     RDKit          3D

 21 23  0  0  0  0  0  0  0  0999 V2000
   39.1009   82.1647   48.4378 C   0  0  0  0  0  0  0  0  0  0  0  0
   37.8104   81.8680   49.0677 N   0  0  0  0  0  0  0  0  0  0  0  0
   36.9837   80.8011   48.5553 C   0  0  0  0  0  0  0  0  0  0  0  0
   37.4455   82.6713   50.1838 C   0  0  0  0  0  0  0  0  0  0  0  0
   38.1490   83.6201   50.5893 O   0  0  0  0  0  0  0  0  0  0  0  0
   36.1541   82.2884   50.8334 C   0  0  0  0  0  0  0  0  0  0  0  0
   34.5377   82.9819   50.1725 S   0  0  0  0  0  0  0  0  0  0  0  0
   33.5862   82.0469   51.5224 C   0  0  0  0  0  0  0  0  0  0  0  0
   32.0826   82.2361   51.5030 C   0  0  0  0  0  0  0  0  0  0  0  0
   31.2786   81.8325   52.5707 C   0  0  0  0  0  0  0  0  0  0  0  0
   29.9968   82.1599   52.1998 C   0  0  0  0  0  0  0  0  0  0  0  0
   30.1149   82.7309   50.9509 C   0  0  0  0  0  0  0  0  0  0  0  0
   31.3616   82.7599   50.5707 O   0  0  0  0  0  0  0  0  0  0  0  0
   34.4452   81.5354   52.0578 N   0  0  0  0  0  0  0  0  0  0  0  0
   35.7548   81.5437   51.8545 C   0  0  0  0  0  0  0  0  0  0  0  0
   36.7095   80.8004   52.7157 C   0  0  0  0  0  0  0  0  0  0  0  0
   38.0344   80.8053   52.2683 C   0  0  0  0  0  0  0  0  0  0  0  0
   38.9609   80.1554   53.0502 C   0  0  0  0  0  0  0  0  0  0  0  0
   38.6348   79.5254   54.2142 C   0  0  0  0  0  0  0  0  0  0  0  0
   37.3301   79.5285   54.6420 C   0  0  0  0  0  0  0  0  0  0  0  0
   36.3484   80.1770   53.8806 C   0  0  0  0  0  0  0  0  0  0  0  0
  1  2  1  0
  2  3  1  0
  2  4  1  0
  4  5  2  0
  4  6  1  0
  6  7  1  0
  7  8  1  0
  8  9  1  0
  9 10  2  0
 10 11  1  0
 11 12  2  0
 12 13  1  0
  8 14  2  0
 14 15  1  0
 15 16  1  0
 16 17  2  0
 17 18  1  0
 18 19  2  0
 19 20  1  0
 20 21  2  0
 15  6  2  0
 21 16  1  0
 13  9  1  0
M  END
$$$$
