
     RDKit          3D

 22 24  0  0  0  0  0  0  0  0999 V2000
   39.7724   84.0686   49.8069 C   0  0  0  0  0  0  0  0  0  0  0  0
   40.1616   82.7359   49.8541 O   0  0  0  0  0  0  0  0  0  0  0  0
   39.1055   81.8880   49.5127 C   0  0  0  0  0  0  0  0  0  0  0  0
   38.4963   81.3339   50.7366 C   0  0  0  0  0  0  0  0  0  0  0  0
   39.1584   80.6081   51.6555 N   0  0  0  0  0  0  0  0  0  0  0  0
   38.2584   80.2833   52.6273 C   0  0  0  0  0  0  0  0  0  0  0  0
   38.3328   79.5766   53.7891 C   0  0  0  0  0  0  0  0  0  0  0  0
   37.2483   79.3950   54.6047 C   0  0  0  0  0  0  0  0  0  0  0  0
   36.0358   79.9477   54.2366 C   0  0  0  0  0  0  0  0  0  0  0  0
   35.9331   80.6680   53.0650 C   0  0  0  0  0  0  0  0  0  0  0  0
   37.0362   80.8394   52.2579 C   0  0  0  0  0  0  0  0  0  0  0  0
   37.2112   81.4776   51.0952 N   0  0  0  0  0  0  0  0  0  0  0  0
   36.2256   82.1940   50.3434 C   0  0  0  0  0  0  0  0  0  0  0  0
   35.0045   82.5403   51.1572 C   0  0  0  0  0  0  0  0  0  0  0  0
   33.8234   82.1310   50.5386 O   0  0  0  0  0  0  0  0  0  0  0  0
   32.5599   82.3162   51.0802 C   0  0  0  0  0  0  0  0  0  0  0  0
   32.3701   82.5373   52.4286 C   0  0  0  0  0  0  0  0  0  0  0  0
   31.1108   82.7214   52.9652 C   0  0  0  0  0  0  0  0  0  0  0  0
   29.9843   82.6916   52.1697 C   0  0  0  0  0  0  0  0  0  0  0  0
   28.7426   82.8730   52.6974 F   0  0  0  0  0  0  0  0  0  0  0  0
   30.1681   82.4710   50.8208 C   0  0  0  0  0  0  0  0  0  0  0  0
   31.4405   82.2844   50.2750 C   0  0  0  0  0  0  0  0  0  0  0  0
  1  2  1  0
  2  3  1  0
  3  4  1  0
  4  5  2  0
  5  6  1  0
  6  7  2  0
  7  8  1  0
  8  9  2  0
  9 10  1  0
 10 11  2  0
 11 12  1  0
 12 13  1  0
 13 14  1  0
 14 15  1  0
 15 16  1  0
 16 17  2  0
 17 18  1  0
 18 19  2  0
 19 20  1  0
 19 21  1  0
 21 22  2  0
 12  4  1  0
 22 16  1  0
 11  6  1  0
M  END
$$$$
