
     RDKit          3D

 40 44  0  0  0  0  0  0  0  0999 V2000
   16.8506   91.8203   63.8006 C   0  0  0  0  0  0  0  0  0  0  0  0
   15.7500   92.4990   64.5120 C   0  0  0  0  0  0  0  0  0  0  0  0
   15.2376   91.9738   65.6772 C   0  0  0  0  0  0  0  0  0  0  0  0
   14.2129   92.5742   66.3694 C   0  0  0  0  0  0  0  0  0  0  0  0
   13.6753   93.7624   65.8659 C   0  0  0  0  0  0  0  0  0  0  0  0
   12.6731   94.5901   66.3036 C   0  0  0  0  0  0  0  0  0  0  0  0
   12.5629   95.6031   65.4368 N   0  0  0  0  0  0  0  0  0  0  0  0
   13.4572   95.4277   64.4873 N   0  0  0  0  0  0  0  0  0  0  0  0
   13.6709   96.2988   63.3558 C   0  0  0  0  0  0  0  0  0  0  0  0
   12.8404   95.8040   62.1958 C   0  0  0  0  0  0  0  0  0  0  0  0
   12.1058   96.9334   61.5903 C   0  0  0  0  0  0  0  0  0  0  0  0
   12.7459   97.9086   61.1215 O   0  0  0  0  0  0  0  0  0  0  0  0
   10.6904   96.9916   61.5007 N   0  0  0  0  0  0  0  0  0  0  0  0
   10.0643   97.9503   60.6305 C   0  0  0  0  0  0  0  0  0  0  0  0
    8.7920   97.8266   60.0975 C   0  0  0  0  0  0  0  0  0  0  0  0
    8.5913   98.9279   59.3434 N   0  0  0  0  0  0  0  0  0  0  0  0
    9.6621   99.7096   59.3871 N   0  0  0  0  0  0  0  0  0  0  0  0
    9.8352  100.9864   58.7056 C   0  0  0  0  0  0  0  0  0  0  0  0
   10.7566  100.7157   57.5564 C   0  0  0  0  0  0  0  0  0  0  0  0
   12.0832  101.0761   57.5984 C   0  0  0  0  0  0  0  0  0  0  0  0
   12.9233  100.8202   56.5274 C   0  0  0  0  0  0  0  0  0  0  0  0
   12.4461  100.1993   55.3992 C   0  0  0  0  0  0  0  0  0  0  0  0
   13.3223   99.9319   54.2841 C   0  0  0  0  0  0  0  0  0  0  0  0
   12.8208   99.3591   53.2649 O   0  0  0  0  0  0  0  0  0  0  0  0
   14.6862  100.2473   54.2196 N   0  0  0  0  0  0  0  0  0  0  0  0
   15.3386  100.7103   53.0320 C   0  0  0  0  0  0  0  0  0  0  0  0
   15.0723  100.1699   51.7922 C   0  0  0  0  0  0  0  0  0  0  0  0
   15.7302  100.6504   50.6642 C   0  0  0  0  0  0  0  0  0  0  0  0
   15.4281  100.0533   49.3394 C   0  0  0  0  0  0  0  0  0  0  0  0
   16.2283  100.6076   48.3736 F   0  0  0  0  0  0  0  0  0  0  0  0
   15.6692   98.6938   49.3477 F   0  0  0  0  0  0  0  0  0  0  0  0
   14.1161  100.2396   48.9738 F   0  0  0  0  0  0  0  0  0  0  0  0
   16.6543  101.6683   50.7608 C   0  0  0  0  0  0  0  0  0  0  0  0
   16.8974  102.1862   52.0125 C   0  0  0  0  0  0  0  0  0  0  0  0
   16.2437  101.7016   53.0984 N   0  0  0  0  0  0  0  0  0  0  0  0
   11.1171   99.8523   55.3892 C   0  0  0  0  0  0  0  0  0  0  0  0
   10.2664  100.0935   56.4330 C   0  0  0  0  0  0  0  0  0  0  0  0
   10.5467   99.1124   60.1663 N   0  0  0  0  0  0  0  0  0  0  0  0
   14.1661   94.3118   64.7039 C   0  0  0  0  0  0  0  0  0  0  0  0
   15.1926   93.6744   64.0463 C   0  0  0  0  0  0  0  0  0  0  0  0
  1  2  1  0
  2  3  2  0
  3  4  1  0
  4  5  2  0
  5  6  1  0
  6  7  2  0
  7  8  1  0
  8  9  1  0
  9 10  1  0
 10 11  1  0
 11 12  2  0
 11 13  1  0
 13 14  1  0
 14 15  1  0
 15 16  2  0
 16 17  1  0
 17 18  1  0
 18 19  1  0
 19 20  2  0
 20 21  1  0
 21 22  2  0
 22 23  1  0
 23 24  2  0
 23 25  1  0
 25 26  1  0
 26 27  2  0
 27 28  1  0
 28 29  1  0
 29 30  1  0
 29 31  1  0
 29 32  1  0
 28 33  2  0
 33 34  1  0
 34 35  2  0
 22 36  1  0
 36 37  2  0
 17 38  1  0
  8 39  1  0
 39 40  2  0
 40  2  1  0
 39  5  1  0
 38 14  2  0
 37 19  1  0
 35 26  1  0
M  END
$$$$
