
     RDKit          3D

 26 28  0  0  0  0  0  0  0  0999 V2000
   12.5914   92.6560   65.2973 C   0  0  0  0  0  0  0  0  0  0  0  0
   11.6638   92.7613   64.0802 C   0  0  0  0  0  0  0  0  0  0  0  0
   12.0959   93.9153   63.3339 N   0  0  0  0  0  0  0  0  0  0  0  0
   13.4635   94.2615   63.5363 C   0  0  0  0  0  0  0  0  0  0  0  0
   13.9445   94.9014   62.2255 C   0  0  0  0  0  0  0  0  0  0  0  0
   12.8948   95.8148   61.7786 N   0  0  0  0  0  0  0  0  0  0  0  0
   13.0150   96.3894   60.5080 C   0  0  0  0  0  0  0  0  0  0  0  0
   13.7675   95.8473   59.6529 O   0  0  0  0  0  0  0  0  0  0  0  0
   12.3232   97.5612   60.1361 N   0  0  0  0  0  0  0  0  0  0  0  0
   12.7437   98.2318   58.9238 C   0  0  0  0  0  0  0  0  0  0  0  0
   12.5691   97.5879   57.7313 C   0  0  0  0  0  0  0  0  0  0  0  0
   12.9768   98.2380   56.5553 C   0  0  0  0  0  0  0  0  0  0  0  0
   13.5329   99.4804   56.6020 C   0  0  0  0  0  0  0  0  0  0  0  0
   13.9616  100.1724   55.4043 C   0  0  0  0  0  0  0  0  0  0  0  0
   14.3191  101.5277   55.4450 C   0  0  0  0  0  0  0  0  0  0  0  0
   14.7183  102.1898   54.3538 N   0  0  0  0  0  0  0  0  0  0  0  0
   14.8009  101.5850   53.1372 C   0  0  0  0  0  0  0  0  0  0  0  0
   14.4657  100.2603   53.0269 C   0  0  0  0  0  0  0  0  0  0  0  0
   14.5434   99.6314   51.8026 O   0  0  0  0  0  0  0  0  0  0  0  0
   15.4513  100.1148   50.8367 C   0  0  0  0  0  0  0  0  0  0  0  0
   14.0497   99.5735   54.1684 C   0  0  0  0  0  0  0  0  0  0  0  0
   13.6903  100.0852   57.7911 N   0  0  0  0  0  0  0  0  0  0  0  0
   13.3070   99.4875   58.9586 C   0  0  0  0  0  0  0  0  0  0  0  0
   11.7913   96.1170   62.6210 C   0  0  0  0  0  0  0  0  0  0  0  0
   11.3017   97.2582   62.7010 O   0  0  0  0  0  0  0  0  0  0  0  0
   11.1810   95.0312   63.4545 C   0  0  0  0  0  0  0  0  0  0  0  0
  1  2  1  0
  2  3  1  0
  3  4  1  0
  4  5  1  0
  5  6  1  0
  6  7  1  0
  7  8  2  0
  7  9  1  0
  9 10  1  0
 10 11  2  0
 11 12  1  0
 12 13  2  0
 13 14  1  0
 14 15  2  0
 15 16  1  0
 16 17  2  0
 17 18  1  0
 18 19  1  0
 19 20  1  0
 18 21  2  0
 13 22  1  0
 22 23  2  0
  6 24  1  0
 24 25  2  0
 24 26  1  0
 26  3  1  0
 23 10  1  0
 21 14  1  0
M  END
$$$$
