
     RDKit          3D

 22 24  0  0  0  0  0  0  0  0999 V2000
    9.1683   98.8870   60.8968 C   0  0  0  0  0  0  0  0  0  0  0  0
   10.5529   99.2962   60.6036 C   0  0  0  0  0  0  0  0  0  0  0  0
   10.8310  100.5035   60.4381 O   0  0  0  0  0  0  0  0  0  0  0  0
   11.6047   98.3238   60.4980 N   0  0  0  0  0  0  0  0  0  0  0  0
   12.8552   98.7950   59.9575 C   0  0  0  0  0  0  0  0  0  0  0  0
   14.0079   98.1493   60.6290 C   0  0  0  0  0  0  0  0  0  0  0  0
   14.3695   96.8932   59.8367 C   0  0  0  0  0  0  0  0  0  0  0  0
   13.1659   96.0054   59.7546 C   0  0  0  0  0  0  0  0  0  0  0  0
   12.3634   96.0300   61.0515 C   0  0  0  0  0  0  0  0  0  0  0  0
   11.2213   97.0306   60.9548 C   0  0  0  0  0  0  0  0  0  0  0  0
   13.2638   96.3859   62.1148 N   0  0  0  0  0  0  0  0  0  0  0  0
   13.6621   95.4811   63.1032 C   0  0  0  0  0  0  0  0  0  0  0  0
   14.7704   95.7430   63.7016 O   0  0  0  0  0  0  0  0  0  0  0  0
   12.9218   94.2802   63.4960 C   0  0  0  0  0  0  0  0  0  0  0  0
   11.5756   94.1026   63.7158 C   0  0  0  0  0  0  0  0  0  0  0  0
   10.5230   95.1763   63.5974 C   0  0  0  0  0  0  0  0  0  0  0  0
   11.3901   92.8489   64.0418 O   0  0  0  0  0  0  0  0  0  0  0  0
   12.4979   92.1602   64.0608 C   0  0  0  0  0  0  0  0  0  0  0  0
   12.6719   90.6964   64.3874 C   0  0  0  0  0  0  0  0  0  0  0  0
   13.5031   93.0415   63.7168 C   0  0  0  0  0  0  0  0  0  0  0  0
   14.9336   92.7015   63.6167 C   0  0  0  0  0  0  0  0  0  0  0  0
   13.7502   97.7665   62.0818 C   0  0  0  0  0  0  0  0  0  0  0  0
  1  2  1  0
  2  3  2  0
  2  4  1  0
  4  5  1  0
  5  6  1  0
  6  7  1  0
  7  8  1  0
  8  9  1  0
  9 10  1  0
  9 11  1  0
 11 12  1  0
 12 13  2  0
 12 14  1  0
 14 15  2  0
 15 16  1  0
 15 17  1  0
 17 18  1  0
 18 19  1  0
 18 20  2  0
 20 21  1  0
 11 22  1  0
 10  4  1  0
 20 14  1  0
 22  6  1  0
M  END
$$$$
