
     RDKit          3D

 22 24  0  0  0  0  0  0  0  0999 V2000
   16.8173   52.8929   12.3047 C   0  0  0  0  0  0  0  0  0  0  0  0
   16.3419   52.0908   13.4720 C   0  0  0  0  0  0  0  0  0  0  0  0
   15.0345   51.6802   13.6286 C   0  0  0  0  0  0  0  0  0  0  0  0
   14.6257   50.9231   14.7305 C   0  0  0  0  0  0  0  0  0  0  0  0
   15.5378   50.5673   15.6984 C   0  0  0  0  0  0  0  0  0  0  0  0
   15.1542   49.7633   16.8724 C   0  0  0  0  0  0  0  0  0  0  0  0
   14.0013   50.4631   17.6037 C   0  0  0  0  0  0  0  0  0  0  0  0
   13.5871   49.7802   18.7175 O   0  0  0  0  0  0  0  0  0  0  0  0
   14.7764   48.3650   16.4858 C   0  0  0  0  0  0  0  0  0  0  0  0
   15.0808   47.5298   17.7330 C   0  0  0  0  0  0  0  0  0  0  0  0
   16.0910   48.2061   18.3851 N   0  0  0  0  0  0  0  0  0  0  0  0
   17.3367   47.6652   18.7131 C   0  0  0  0  0  0  0  0  0  0  0  0
   17.7500   47.8460   20.1291 C   0  0  0  0  0  0  0  0  0  0  0  0
   17.0385   47.4132   21.2543 C   0  0  0  0  0  0  0  0  0  0  0  0
   17.7699   47.7071   22.3312 N   0  0  0  0  0  0  0  0  0  0  0  0
   18.8913   48.2942   21.9735 N   0  0  0  0  0  0  0  0  0  0  0  0
   19.9676   48.7624   22.8464 C   0  0  0  0  0  0  0  0  0  0  0  0
   18.9040   48.3951   20.6111 C   0  0  0  0  0  0  0  0  0  0  0  0
   20.0171   49.0783   19.8729 C   0  0  0  0  0  0  0  0  0  0  0  0
   16.2239   49.5544   17.8867 C   0  0  0  0  0  0  0  0  0  0  0  0
   16.8322   50.9962   15.5058 C   0  0  0  0  0  0  0  0  0  0  0  0
   17.2058   51.7250   14.4363 N   0  0  0  0  0  0  0  0  0  0  0  0
  1  2  1  0
  2  3  2  0
  3  4  1  0
  4  5  2  0
  5  6  1  0
  6  7  1  0
  7  8  1  0
  6  9  1  0
  9 10  1  0
 10 11  1  0
 11 12  1  0
 12 13  1  0
 13 14  1  0
 14 15  2  0
 15 16  1  0
 16 17  1  0
 16 18  1  0
 18 19  1  0
 11 20  1  0
  5 21  1  0
 21 22  2  0
 22  2  1  0
 20  6  1  0
 18 13  2  0
M  END
$$$$
