
     RDKit          3D

 24 26  0  0  0  0  0  0  0  0999 V2000
   18.7223   53.0307   14.2076 C   0  0  0  0  0  0  0  0  0  0  0  0
   17.4007   52.7944   13.4686 C   0  0  0  0  0  0  0  0  0  0  0  0
   17.5134   51.7847   12.3773 C   0  0  0  0  0  0  0  0  0  0  0  0
   16.2589   52.6297   14.3810 C   0  0  0  0  0  0  0  0  0  0  0  0
   16.3122   51.5695   15.2487 N   0  0  0  0  0  0  0  0  0  0  0  0
   15.3409   51.3110   16.1318 C   0  0  0  0  0  0  0  0  0  0  0  0
   15.4200   50.1959   17.0341 N   0  0  0  0  0  0  0  0  0  0  0  0
   16.6036   49.3767   17.2239 C   0  0  0  0  0  0  0  0  0  0  0  0
   15.9763   47.9817   17.1275 C   0  0  0  0  0  0  0  0  0  0  0  0
   14.7293   48.1589   17.9459 C   0  0  0  0  0  0  0  0  0  0  0  0
   14.4103   49.6588   17.9098 C   0  0  0  0  0  0  0  0  0  0  0  0
   14.2909   52.1428   16.1382 N   0  0  0  0  0  0  0  0  0  0  0  0
   14.1719   53.1915   15.3245 C   0  0  0  0  0  0  0  0  0  0  0  0
   15.1925   53.4694   14.3915 C   0  0  0  0  0  0  0  0  0  0  0  0
   15.0360   54.6215   13.5209 C   0  0  0  0  0  0  0  0  0  0  0  0
   15.8960   54.7517   12.5776 O   0  0  0  0  0  0  0  0  0  0  0  0
   14.0594   55.6189   13.5830 N   0  0  0  0  0  0  0  0  0  0  0  0
   14.0050   56.7616   12.6936 C   0  0  0  0  0  0  0  0  0  0  0  0
   12.6515   56.9747   12.0652 C   0  0  0  0  0  0  0  0  0  0  0  0
   14.4857   58.0197   13.3264 C   0  0  0  0  0  0  0  0  0  0  0  0
   15.9826   58.1048   13.4153 C   0  0  0  0  0  0  0  0  0  0  0  0
   16.2465   59.5878   13.2938 C   0  0  0  0  0  0  0  0  0  0  0  0
   14.9978   60.0924   12.6169 C   0  0  0  0  0  0  0  0  0  0  0  0
   13.9959   59.1663   12.7771 O   0  0  0  0  0  0  0  0  0  0  0  0
  1  2  1  0
  2  3  1  0
  2  4  1  0
  4  5  2  0
  5  6  1  0
  6  7  1  0
  7  8  1  0
  8  9  1  0
  9 10  1  0
 10 11  1  0
  6 12  2  0
 12 13  1  0
 13 14  2  0
 14 15  1  0
 15 16  2  0
 15 17  1  0
 17 18  1  0
 18 19  1  0
 18 20  1  0
 20 21  1  0
 21 22  1  0
 22 23  1  0
 23 24  1  0
 14  4  1  0
 24 20  1  0
 11  7  1  0
M  END
$$$$
