
     RDKit          3D

 29 32  0  0  0  0  0  0  0  0999 V2000
   10.8902   98.2863   52.3771 C   0  0  0  0  0  0  0  0  0  0  0  0
   12.2417   98.9662   52.3936 C   0  0  0  0  0  0  0  0  0  0  0  0
   12.4220   99.7848   53.5274 O   0  0  0  0  0  0  0  0  0  0  0  0
   13.3424  100.7979   53.6406 C   0  0  0  0  0  0  0  0  0  0  0  0
   13.6875  101.6323   52.5954 C   0  0  0  0  0  0  0  0  0  0  0  0
   14.6146  102.6481   52.7196 C   0  0  0  0  0  0  0  0  0  0  0  0
   15.2074  102.8150   53.9535 C   0  0  0  0  0  0  0  0  0  0  0  0
   14.8666  101.9841   55.0021 C   0  0  0  0  0  0  0  0  0  0  0  0
   13.9437  100.9684   54.8894 C   0  0  0  0  0  0  0  0  0  0  0  0
   13.5875  100.1084   55.9662 N   0  0  0  0  0  0  0  0  0  0  0  0
   14.3312   98.9887   56.1178 C   0  0  0  0  0  0  0  0  0  0  0  0
   15.4537   98.6659   55.2228 C   0  0  0  0  0  0  0  0  0  0  0  0
   14.0205   98.1590   57.1214 N   0  0  0  0  0  0  0  0  0  0  0  0
   13.0009   98.3921   57.9839 C   0  0  0  0  0  0  0  0  0  0  0  0
   12.7077   97.5107   59.0111 C   0  0  0  0  0  0  0  0  0  0  0  0
   11.6755   97.7255   59.9011 C   0  0  0  0  0  0  0  0  0  0  0  0
   11.4628   96.7266   60.9406 C   0  0  0  0  0  0  0  0  0  0  0  0
   11.5508   95.3730   60.6408 C   0  0  0  0  0  0  0  0  0  0  0  0
   11.3574   94.3940   61.5921 C   0  0  0  0  0  0  0  0  0  0  0  0
   11.0647   94.7281   62.8974 C   0  0  0  0  0  0  0  0  0  0  0  0
   10.8614   93.7719   63.8912 O   0  0  0  0  0  0  0  0  0  0  0  0
   11.7658   93.6132   64.9700 C   0  0  0  0  0  0  0  0  0  0  0  0
   10.9757   96.0691   63.2025 C   0  0  0  0  0  0  0  0  0  0  0  0
   11.1696   97.0530   62.2482 C   0  0  0  0  0  0  0  0  0  0  0  0
   10.9172   98.8620   59.7509 C   0  0  0  0  0  0  0  0  0  0  0  0
   11.1980   99.7613   58.7218 C   0  0  0  0  0  0  0  0  0  0  0  0
   12.2342   99.5305   57.8408 C   0  0  0  0  0  0  0  0  0  0  0  0
   12.5616  100.3759   56.8070 C   0  0  0  0  0  0  0  0  0  0  0  0
   11.8914  101.4180   56.6435 O   0  0  0  0  0  0  0  0  0  0  0  0
  1  2  1  0
  2  3  1  0
  3  4  1  0
  4  5  2  0
  5  6  1  0
  6  7  2  0
  7  8  1  0
  8  9  2  0
  9 10  1  0
 10 11  1  0
 11 12  1  0
 11 13  2  0
 13 14  1  0
 14 15  2  0
 15 16  1  0
 16 17  1  0
 17 18  2  0
 18 19  1  0
 19 20  2  0
 20 21  1  0
 21 22  1  0
 20 23  1  0
 23 24  2  0
 16 25  2  0
 25 26  1  0
 26 27  2  0
 27 28  1  0
 28 29  2  0
  9  4  1  0
 28 10  1  0
 27 14  1  0
 24 17  1  0
M  END
$$$$
