
     RDKit          3D

 22 23  0  0  0  0  0  0  0  0999 V2000
   -5.7454   60.3090   29.6026 O   0  0  0  0  0  0  0  0  0  0  0  0
   -4.8655   60.7846   30.4542 C   0  0  0  0  0  0  0  0  0  0  0  0
   -3.5790   60.1612   30.3466 C   0  0  0  0  0  0  0  0  0  0  0  0
   -2.4066   60.8444   30.2411 C   0  0  0  0  0  0  0  0  0  0  0  0
   -1.1526   60.1962   30.1274 C   0  0  0  0  0  0  0  0  0  0  0  0
   -0.0323   60.9428   30.0242 F   0  0  0  0  0  0  0  0  0  0  0  0
   -1.1006   58.8213   30.1223 C   0  0  0  0  0  0  0  0  0  0  0  0
   -2.2686   58.0906   30.2275 C   0  0  0  0  0  0  0  0  0  0  0  0
   -2.1767   56.7429   30.2222 F   0  0  0  0  0  0  0  0  0  0  0  0
   -3.4667   58.7455   30.3365 C   0  0  0  0  0  0  0  0  0  0  0  0
   -5.3921   61.7792   31.2620 N   0  0  0  0  0  0  0  0  0  0  0  0
   -6.7934   62.1854   30.9184 C   0  0  0  0  0  0  0  0  0  0  0  0
   -7.6215   62.3810   32.1432 C   0  0  0  0  0  0  0  0  0  0  0  0
   -8.6623   61.4322   32.0786 O   0  0  0  0  0  0  0  0  0  0  0  0
   -4.8713   62.4985   32.3791 C   0  0  0  0  0  0  0  0  0  0  0  0
   -4.2783   63.8028   32.0124 C   0  0  0  0  0  0  0  0  0  0  0  0
   -4.6842   64.9304   32.6884 C   0  0  0  0  0  0  0  0  0  0  0  0
   -4.1725   66.1937   32.4570 C   0  0  0  0  0  0  0  0  0  0  0  0
   -3.1927   66.2935   31.4748 C   0  0  0  0  0  0  0  0  0  0  0  0
   -2.7521   65.2032   30.7710 C   0  0  0  0  0  0  0  0  0  0  0  0
   -1.4934   65.3813   29.5316 Cl  0  0  0  0  0  0  0  0  0  0  0  0
   -3.3120   63.9686   31.0590 C   0  0  0  0  0  0  0  0  0  0  0  0
  1  2  2  0
  2  3  1  0
  3  4  2  0
  4  5  1  0
  5  6  1  0
  5  7  2  0
  7  8  1  0
  8  9  1  0
  8 10  2  0
  2 11  1  0
 11 12  1  0
 12 13  1  0
 13 14  1  0
 11 15  1  0
 15 16  1  0
 16 17  2  0
 17 18  1  0
 18 19  2  0
 19 20  1  0
 20 21  1  0
 20 22  2  0
 10  3  1  0
 22 16  1  0
M  END
$$$$
