
     RDKit          3D

 18 20  0  0  0  0  0  0  0  0999 V2000
   28.3728   81.9382   50.1136 Cl  0  0  0  0  0  0  0  0  0  0  0  0
   29.6624   82.0879   51.2882 C   0  0  0  0  0  0  0  0  0  0  0  0
   29.3621   82.2527   52.6361 C   0  0  0  0  0  0  0  0  0  0  0  0
   30.3802   82.3703   53.5578 C   0  0  0  0  0  0  0  0  0  0  0  0
   31.6961   82.3252   53.1490 C   0  0  0  0  0  0  0  0  0  0  0  0
   32.0309   82.1617   51.8109 C   0  0  0  0  0  0  0  0  0  0  0  0
   33.4140   82.1118   51.3603 C   0  0  0  0  0  0  0  0  0  0  0  0
   34.5857   82.0204   51.7736 N   0  0  0  0  0  0  0  0  0  0  0  0
   35.6615   82.0003   51.1180 C   0  0  0  0  0  0  0  0  0  0  0  0
   37.0411   81.8874   51.6918 C   0  0  0  0  0  0  0  0  0  0  0  0
   37.3769   81.6432   52.9693 N   0  0  0  0  0  0  0  0  0  0  0  0
   38.7186   81.6249   53.0465 C   0  0  0  0  0  0  0  0  0  0  0  0
   39.1950   81.8492   51.8621 O   0  0  0  0  0  0  0  0  0  0  0  0
   38.2055   82.0094   51.0345 N   0  0  0  0  0  0  0  0  0  0  0  0
   35.5957   82.0917   49.6946 C   0  0  0  0  0  0  0  0  0  0  0  0
   33.7817   82.2037   49.5329 S   0  0  0  0  0  0  0  0  0  0  0  0
   30.9795   82.0490   50.9297 C   0  0  0  0  0  0  0  0  0  0  0  0
   31.4162   81.8408   49.2249 Cl  0  0  0  0  0  0  0  0  0  0  0  0
  1  2  1  0
  2  3  2  0
  3  4  1  0
  4  5  2  0
  5  6  1  0
  6  7  1  0
  7  8  2  0
  8  9  1  0
  9 10  1  0
 10 11  1  0
 11 12  2  0
 12 13  1  0
 13 14  1  0
  9 15  2  0
 15 16  1  0
  6 17  2  0
 17 18  1  0
 17  2  1  0
 16  7  1  0
 14 10  2  0
M  END
$$$$
