
     RDKit          3D

 35 38  0  0  0  0  0  0  0  0999 V2000
   40.1439   75.7876   50.1587 C   0  0  0  0  0  0  0  0  0  0  0  0
   39.5769   76.5709   51.1401 O   0  0  0  0  0  0  0  0  0  0  0  0
   39.5374   77.9008   50.8255 C   0  0  0  0  0  0  0  0  0  0  0  0
   39.2897   78.8212   51.9578 C   0  0  0  0  0  0  0  0  0  0  0  0
   38.9766   78.3855   53.1189 O   0  0  0  0  0  0  0  0  0  0  0  0
   39.3997   80.2152   51.7576 N   0  0  0  0  0  0  0  0  0  0  0  0
   39.6908   81.1972   52.7728 C   0  0  0  0  0  0  0  0  0  0  0  0
   38.9987   82.4489   52.3475 C   0  0  1  0  0  0  0  0  0  0  0  0
   39.8377   83.6700   52.3877 C   0  0  0  0  0  0  0  0  0  0  0  0
   40.6236   83.8999   51.4157 O   0  0  0  0  0  0  0  0  0  0  0  0
   39.7687   84.5684   53.4821 N   0  0  0  0  0  0  0  0  0  0  0  0
   38.8491   84.2846   54.5433 C   0  0  0  0  0  0  0  0  0  0  0  0
   40.6594   85.7029   53.4604 C   0  0  0  0  0  0  0  0  0  0  0  0
   41.5909   85.7144   54.6181 C   0  0  0  0  0  0  0  0  0  0  0  0
   42.4220   86.9806   54.6694 C   0  0  0  0  0  0  0  0  0  0  0  0
   43.7509   86.6379   55.2930 C   0  0  0  0  0  0  0  0  0  0  0  0
   44.5900   85.7176   54.4517 C   0  0  0  0  0  0  0  0  0  0  0  0
   43.7071   84.7537   53.7121 C   0  0  0  0  0  0  0  0  0  0  0  0
   42.4899   84.5297   54.5963 C   0  0  0  0  0  0  0  0  0  0  0  0
   38.5603   82.1884   50.9208 C   0  0  2  0  0  0  0  0  0  0  0  0
   37.1082   82.1028   50.7505 C   0  0  0  0  0  0  0  0  0  0  0  0
   36.5976   81.4245   49.6665 C   0  0  0  0  0  0  0  0  0  0  0  0
   35.2249   81.3601   49.5403 C   0  0  0  0  0  0  0  0  0  0  0  0
   34.3771   81.9481   50.4571 C   0  0  0  0  0  0  0  0  0  0  0  0
   32.9400   81.8437   50.2640 C   0  0  0  0  0  0  0  0  0  0  0  0
   32.4062   81.5286   49.0097 C   0  0  0  0  0  0  0  0  0  0  0  0
   31.0511   81.4278   48.8130 C   0  0  0  0  0  0  0  0  0  0  0  0
   30.1921   81.6369   49.8564 C   0  0  0  0  0  0  0  0  0  0  0  0
   30.6663   81.9552   51.1357 C   0  0  0  0  0  0  0  0  0  0  0  0
   29.7190   82.1784   52.2598 C   0  0  0  0  0  0  0  0  0  0  0  0
   32.0277   82.0433   51.2765 C   0  0  0  0  0  0  0  0  0  0  0  0
   32.5098   82.3498   52.5020 F   0  0  0  0  0  0  0  0  0  0  0  0
   34.8983   82.6225   51.5350 C   0  0  0  0  0  0  0  0  0  0  0  0
   36.2536   82.6989   51.6801 C   0  0  0  0  0  0  0  0  0  0  0  0
   39.2476   80.9102   50.5133 C   0  0  0  0  0  0  0  0  0  0  0  0
  1  2  1  0
  2  3  1  0
  3  4  1  0
  4  5  2  0
  4  6  1  0
  6  7  1  0
  7  8  1  0
  8  9  1  6
  9 10  2  0
  9 11  1  0
 11 12  1  0
 11 13  1  0
 13 14  1  0
 14 15  1  0
 15 16  1  0
 16 17  1  0
 17 18  1  0
 18 19  1  0
  8 20  1  0
 20 21  1  1
 21 22  2  0
 22 23  1  0
 23 24  2  0
 24 25  1  0
 25 26  2  0
 26 27  1  0
 27 28  2  0
 28 29  1  0
 29 30  1  0
 29 31  2  0
 31 32  1  0
 24 33  1  0
 33 34  2  0
 20 35  1  0
 35  6  1  0
 19 14  1  0
 34 21  1  0
 31 25  1  0
M  END
$$$$
