
     RDKit          3D

 29 32  0  0  0  0  0  0  0  0999 V2000
   17.1957   53.8536   11.4413 C   0  0  0  0  0  0  0  0  0  0  0  0
   16.6083   53.2619   12.6327 N   0  0  0  0  0  0  0  0  0  0  0  0
   15.8401   54.0162   13.4452 C   0  0  0  0  0  0  0  0  0  0  0  0
   15.6471   55.3991   13.0870 N   0  0  0  0  0  0  0  0  0  0  0  0
   15.3651   55.8412   11.7616 C   0  0  0  0  0  0  0  0  0  0  0  0
   14.4107   56.9885   11.7475 C   0  0  0  0  0  0  0  0  0  0  0  0
   14.7139   58.0271   12.6995 N   0  0  0  0  0  0  0  0  0  0  0  0
   14.0862   59.2911   12.5084 C   0  0  0  0  0  0  0  0  0  0  0  0
   13.4213   59.6310   11.3822 N   0  0  0  0  0  0  0  0  0  0  0  0
   12.8257   60.8252   11.2424 C   0  0  0  0  0  0  0  0  0  0  0  0
   12.8743   61.7652   12.2634 C   0  0  0  0  0  0  0  0  0  0  0  0
   13.5541   61.4168   13.4140 C   0  0  0  0  0  0  0  0  0  0  0  0
   14.1262   60.2210   13.5016 N   0  0  0  0  0  0  0  0  0  0  0  0
   15.6324   57.7690   13.7811 C   0  0  0  0  0  0  0  0  0  0  0  0
   15.7368   56.3372   14.1779 C   0  0  0  0  0  0  0  0  0  0  0  0
   15.2854   53.5025   14.5489 N   0  0  0  0  0  0  0  0  0  0  0  0
   15.4674   52.2252   14.8936 C   0  0  0  0  0  0  0  0  0  0  0  0
   14.8927   51.6461   16.0979 C   0  0  0  0  0  0  0  0  0  0  0  0
   13.5419   51.5352   16.2949 C   0  0  0  0  0  0  0  0  0  0  0  0
   13.0486   50.9986   17.4575 C   0  0  0  0  0  0  0  0  0  0  0  0
   13.8714   50.5456   18.4836 C   0  0  0  0  0  0  0  0  0  0  0  0
   13.1630   49.8739   19.9390 Cl  0  0  0  0  0  0  0  0  0  0  0  0
   15.2273   50.6570   18.2868 C   0  0  0  0  0  0  0  0  0  0  0  0
   15.7233   51.1913   17.1270 C   0  0  0  0  0  0  0  0  0  0  0  0
   17.4516   51.3369   16.8528 Cl  0  0  0  0  0  0  0  0  0  0  0  0
   16.2597   51.4290   14.0628 C   0  0  0  0  0  0  0  0  0  0  0  0
   16.4586   50.1261   14.3895 F   0  0  0  0  0  0  0  0  0  0  0  0
   16.8329   51.9532   12.9251 C   0  0  0  0  0  0  0  0  0  0  0  0
   17.5575   51.2635   12.1476 O   0  0  0  0  0  0  0  0  0  0  0  0
  1  2  1  0
  2  3  1  0
  3  4  1  0
  4  5  1  0
  5  6  1  0
  6  7  1  0
  7  8  1  0
  8  9  2  0
  9 10  1  0
 10 11  2  0
 11 12  1  0
 12 13  2  0
  7 14  1  0
 14 15  1  0
  3 16  2  0
 16 17  1  0
 17 18  1  0
 18 19  2  0
 19 20  1  0
 20 21  2  0
 21 22  1  0
 21 23  1  0
 23 24  2  0
 24 25  1  0
 17 26  2  0
 26 27  1  0
 26 28  1  0
 28 29  2  0
 28  2  1  0
 15  4  1  0
 24 18  1  0
 13  8  1  0
M  END
$$$$
