
     RDKit          3D

 35 39  0  0  0  0  0  0  0  0999 V2000
   38.4787   79.0723   49.5995 O   0  0  0  0  0  0  0  0  0  0  0  0
   37.9393   80.2061   49.8368 C   0  0  0  0  0  0  0  0  0  0  0  0
   36.8220   80.5610   48.9828 C   0  0  0  0  0  0  0  0  0  0  0  0
   37.0391   80.6592   47.6080 C   0  0  0  0  0  0  0  0  0  0  0  0
   35.9904   80.9862   46.7739 C   0  0  0  0  0  0  0  0  0  0  0  0
   34.7107   81.2185   47.3096 C   0  0  0  0  0  0  0  0  0  0  0  0
   33.6373   81.5495   46.4675 N   0  0  0  0  0  0  0  0  0  0  0  0
   32.2819   81.4750   46.9481 C   0  0  0  0  0  0  0  0  0  0  0  0
   31.5563   82.6438   46.2643 C   0  0  0  0  0  0  0  0  0  0  0  0
   31.4427   82.3645   44.9301 O   0  0  0  0  0  0  0  0  0  0  0  0
   32.5339   81.7948   44.3351 C   0  0  0  0  0  0  0  0  0  0  0  0
   33.8353   81.9822   45.1112 C   0  0  0  0  0  0  0  0  0  0  0  0
   34.4872   81.1244   48.6597 C   0  0  0  0  0  0  0  0  0  0  0  0
   33.2467   81.3499   49.1711 O   0  0  0  0  0  0  0  0  0  0  0  0
   32.9099   81.3479   50.5365 C   0  0  0  0  0  0  0  0  0  0  0  0
   31.4447   81.5875   50.6386 C   0  0  0  0  0  0  0  0  0  0  0  0
   30.5726   80.6043   51.0661 C   0  0  0  0  0  0  0  0  0  0  0  0
   29.2253   80.8615   51.1524 C   0  0  0  0  0  0  0  0  0  0  0  0
   28.6878   82.0985   50.8207 C   0  0  0  0  0  0  0  0  0  0  0  0
   29.5493   83.0876   50.3924 C   0  0  0  0  0  0  0  0  0  0  0  0
   30.9051   82.8154   50.3096 C   0  0  0  0  0  0  0  0  0  0  0  0
   35.5496   80.7969   49.4706 C   0  0  0  0  0  0  0  0  0  0  0  0
   38.4072   81.0519   50.8632 N   0  0  0  0  0  0  0  0  0  0  0  0
   39.0378   80.4618   52.0141 C   0  0  0  0  0  0  0  0  0  0  0  0
   40.2038   81.3298   52.4625 C   0  0  0  0  0  0  0  0  0  0  0  0
   39.7253   82.6828   52.5797 N   0  0  0  0  0  0  0  0  0  0  0  0
   40.5681   83.6911   53.1105 C   0  0  0  0  0  0  0  0  0  0  0  0
   40.6310   84.9367   52.4792 C   0  0  0  0  0  0  0  0  0  0  0  0
   41.4241   85.9556   52.9498 C   0  0  0  0  0  0  0  0  0  0  0  0
   42.2036   85.7854   54.0842 C   0  0  0  0  0  0  0  0  0  0  0  0
   42.1382   84.5554   54.7045 C   0  0  0  0  0  0  0  0  0  0  0  0
   41.3381   83.5330   54.2257 C   0  0  0  0  0  0  0  0  0  0  0  0
   41.2990   82.3323   54.8690 F   0  0  0  0  0  0  0  0  0  0  0  0
   38.3861   83.0386   52.1509 C   0  0  0  0  0  0  0  0  0  0  0  0
   38.2316   82.4830   50.7253 C   0  0  0  0  0  0  0  0  0  0  0  0
  1  2  2  0
  2  3  1  0
  3  4  2  0
  4  5  1  0
  5  6  2  0
  6  7  1  0
  7  8  1  0
  8  9  1  0
  9 10  1  0
 10 11  1  0
 11 12  1  0
  6 13  1  0
 13 14  1  0
 14 15  1  0
 15 16  1  0
 16 17  2  0
 17 18  1  0
 18 19  2  0
 19 20  1  0
 20 21  2  0
 13 22  2  0
  2 23  1  0
 23 24  1  0
 24 25  1  0
 25 26  1  0
 26 27  1  0
 27 28  2  0
 28 29  1  0
 29 30  2  0
 30 31  1  0
 31 32  2  0
 32 33  1  0
 26 34  1  0
 34 35  1  0
 22  3  1  0
 35 23  1  0
 12  7  1  0
 21 16  1  0
 32 27  1  0
M  END
$$$$
