
     RDKit          3D

 15 16  0  0  0  0  0  0  0  0999 V2000
   14.8888   58.5381   13.8065 C   0  0  0  0  0  0  0  0  0  0  0  0
   13.8927   58.2316   12.7543 C   0  0  0  0  0  0  0  0  0  0  0  0
   12.9199   59.1925   12.4604 C   0  0  0  0  0  0  0  0  0  0  0  0
   12.0003   58.8869   11.4921 C   0  0  0  0  0  0  0  0  0  0  0  0
   11.1171   59.7518   11.2210 O   0  0  0  0  0  0  0  0  0  0  0  0
   12.0645   57.7059   10.8758 N   0  0  0  0  0  0  0  0  0  0  0  0
   12.9904   56.8206   11.1719 N   0  0  0  0  0  0  0  0  0  0  0  0
   13.9373   57.0256   12.1062 C   0  0  0  0  0  0  0  0  0  0  0  0
   14.9621   56.0636   12.4557 C   0  0  0  0  0  0  0  0  0  0  0  0
   15.8878   55.7248   11.4721 C   0  0  0  0  0  0  0  0  0  0  0  0
   16.8980   54.8407   11.6970 C   0  0  0  0  0  0  0  0  0  0  0  0
   17.0492   54.2367   12.9209 C   0  0  0  0  0  0  0  0  0  0  0  0
   18.4712   52.9878   13.2475 Br  0  0  0  0  0  0  0  0  0  0  0  0
   16.1397   54.5665   13.8950 C   0  0  0  0  0  0  0  0  0  0  0  0
   15.1109   55.4617   13.6796 C   0  0  0  0  0  0  0  0  0  0  0  0
  1  2  1  0
  2  3  2  0
  3  4  1  0
  4  5  2  0
  4  6  1  0
  6  7  1  0
  7  8  2  0
  8  9  1  0
  9 10  2  0
 10 11  1  0
 11 12  2  0
 12 13  1  0
 12 14  1  0
 14 15  2  0
  8  2  1  0
 15  9  1  0
M  END
$$$$
