
     RDKit          3D

 33 36  0  0  0  0  0  0  0  0999 V2000
   17.8538   55.5894   11.6840 N   0  0  0  0  0  0  0  0  0  0  0  0
   16.4259   55.4050   11.5577 C   0  0  2  0  0  0  0  0  0  0  0  0
   15.6696   56.0348   12.7293 C   0  0  0  0  0  0  0  0  0  0  0  0
   16.0547   55.1308   13.8686 C   0  0  0  0  0  0  0  0  0  0  0  0
   16.2043   53.8357   13.2707 N   0  0  0  0  0  0  0  0  0  0  0  0
   16.3909   52.5752   13.9157 C   0  0  0  0  0  0  0  0  0  0  0  0
   17.0535   51.6654   13.3364 O   0  0  0  0  0  0  0  0  0  0  0  0
   15.8664   52.2746   15.1959 N   0  0  0  0  0  0  0  0  0  0  0  0
   15.9970   50.9450   15.8101 C   0  0  2  0  0  0  0  0  0  0  0  0
   14.8529   50.7455   16.7585 C   0  0  0  0  0  0  0  0  0  0  0  0
   14.2763   49.4123   16.7264 C   0  0  0  0  0  0  0  0  0  0  0  0
   13.5533   48.8379   15.7099 C   0  0  0  0  0  0  0  0  0  0  0  0
   13.2034   47.5899   16.0839 N   0  0  0  0  0  0  0  0  0  0  0  0
   13.6780   47.3227   17.3261 C   0  0  0  0  0  0  0  0  0  0  0  0
   13.6307   46.2568   18.1771 C   0  0  0  0  0  0  0  0  0  0  0  0
   14.2256   46.2700   19.4228 C   0  0  0  0  0  0  0  0  0  0  0  0
   14.8872   47.4206   19.7947 C   0  0  0  0  0  0  0  0  0  0  0  0
   14.9575   48.5158   18.9663 C   0  0  0  0  0  0  0  0  0  0  0  0
   14.3478   48.4641   17.7238 C   0  0  0  0  0  0  0  0  0  0  0  0
   17.2938   50.9592   16.5752 C   0  0  0  0  0  0  0  0  0  0  0  0
   17.6697   52.0172   17.1356 O   0  0  0  0  0  0  0  0  0  0  0  0
   18.1187   49.8088   16.6900 N   0  0  0  0  0  0  0  0  0  0  0  0
   19.4810   49.8506   17.1760 C   0  0  0  0  0  0  0  0  0  0  0  0
   19.5522   49.0771   18.4678 C   0  0  0  0  0  0  0  0  0  0  0  0
   19.2834   50.3247   19.9348 Se  0  0  0  0  0  2  0  0  0  0  0  0
   17.7480   49.4927   21.3549 S   0  0  0  0  0  0  0  0  0  0  0  0
   18.0978   47.7181   21.6020 C   0  0  0  0  0  0  0  0  0  0  0  0
   17.4668   46.9530   20.4591 C   0  0  0  0  0  0  0  0  0  0  0  0
   18.0265   45.5419   20.4865 C   0  0  0  0  0  0  0  0  0  0  0  0
   18.2204   45.1144   21.8383 N   0  0  0  0  0  0  0  0  0  0  0  0
   17.2964   45.7272   22.7653 C   0  0  0  0  0  0  0  0  0  0  0  0
   17.4869   47.2194   22.8874 C   0  0  0  0  0  0  0  0  0  0  0  0
   16.1424   53.9395   11.8158 C   0  0  0  0  0  0  0  0  0  0  0  0
  2  1  1  1
  2  3  1  0
  3  4  1  0
  4  5  1  0
  5  6  1  0
  6  7  2  0
  6  8  1  0
  8  9  1  0
  9 10  1  1
 10 11  1  0
 11 12  2  0
 12 13  1  0
 13 14  1  0
 14 15  2  0
 15 16  1  0
 16 17  2  0
 17 18  1  0
 18 19  2  0
  9 20  1  0
 20 21  2  0
 20 22  1  0
 22 23  1  0
 23 24  1  0
 24 25  1  0
 25 26  1  0
 26 27  1  0
 27 28  1  0
 28 29  1  0
 29 30  1  0
 30 31  1  0
 31 32  1  0
  5 33  1  0
 33  2  1  0
 19 11  1  0
 32 27  1  0
 19 14  1  0
M  END
$$$$
