
     RDKit          3D

 26 28  0  0  0  0  0  0  0  0999 V2000
   16.6420   54.6128    8.7800 C   0  0  0  0  0  0  0  0  0  0  0  0
   15.9583   55.1069    9.8918 O   0  0  0  0  0  0  0  0  0  0  0  0
   16.2412   54.6429   11.1635 C   0  0  0  0  0  0  0  0  0  0  0  0
   17.2124   53.6990   11.4312 C   0  0  0  0  0  0  0  0  0  0  0  0
   17.4625   53.2637   12.7136 C   0  0  0  0  0  0  0  0  0  0  0  0
   16.7382   53.7670   13.7821 C   0  0  0  0  0  0  0  0  0  0  0  0
   17.0364   53.2769   15.1291 C   0  0  0  0  0  0  0  0  0  0  0  0
   16.3236   51.9621   15.3513 C   0  0  0  0  0  0  0  0  0  0  0  0
   16.6204   50.9833   14.6433 O   0  0  0  0  0  0  0  0  0  0  0  0
   15.3346   51.8395   16.3458 N   0  0  0  0  0  0  0  0  0  0  0  0
   14.9308   50.6548   17.0096 C   0  0  0  0  0  0  0  0  0  0  0  0
   13.6725   50.1238   16.9812 C   0  0  0  0  0  0  0  0  0  0  0  0
   13.3789   48.9453   17.6742 C   0  0  0  0  0  0  0  0  0  0  0  0
   14.3601   48.3161   18.3884 C   0  0  0  0  0  0  0  0  0  0  0  0
   15.6512   48.8132   18.4492 C   0  0  0  0  0  0  0  0  0  0  0  0
   16.6696   48.1581   19.1918 N   0  0  0  0  0  0  0  0  0  0  0  0
   18.0134   47.9261   18.7243 C   0  0  0  0  0  0  0  0  0  0  0  0
   18.4552   46.7436   19.5218 C   0  0  0  0  0  0  0  0  0  0  0  0
   17.5379   46.6178   20.6997 C   0  0  0  0  0  0  0  0  0  0  0  0
   16.5018   47.6418   20.4988 C   0  0  0  0  0  0  0  0  0  0  0  0
   15.6251   47.9810   21.3648 O   0  0  0  0  0  0  0  0  0  0  0  0
   15.9000   49.9682   17.7583 C   0  0  0  0  0  0  0  0  0  0  0  0
   15.7591   54.7166   13.5253 C   0  0  0  0  0  0  0  0  0  0  0  0
   15.5145   55.1472   12.2397 C   0  0  0  0  0  0  0  0  0  0  0  0
   14.5470   56.0846   11.9920 O   0  0  0  0  0  0  0  0  0  0  0  0
   13.9053   56.7338   13.0616 C   0  0  0  0  0  0  0  0  0  0  0  0
  1  2  1  0
  2  3  1  0
  3  4  2  0
  4  5  1  0
  5  6  2  0
  6  7  1  0
  7  8  1  0
  8  9  2  0
  8 10  1  0
 10 11  1  0
 11 12  2  0
 12 13  1  0
 13 14  2  0
 14 15  1  0
 15 16  1  0
 16 17  1  0
 17 18  1  0
 18 19  1  0
 19 20  1  0
 20 21  2  0
 15 22  2  0
  6 23  1  0
 23 24  2  0
 24 25  1  0
 25 26  1  0
 24  3  1  0
 22 11  1  0
 20 16  1  0
M  END
$$$$
