
     RDKit          3D

 23 25  0  0  0  0  0  0  0  0999 V2000
   38.5225   78.9319   55.5019 C   0  0  0  0  0  0  0  0  0  0  0  0
   39.0541   79.5603   54.2676 C   0  0  0  0  0  0  0  0  0  0  0  0
   38.2884   80.1314   53.2826 C   0  0  0  0  0  0  0  0  0  0  0  0
   39.1646   80.5880   52.3326 C   0  0  0  0  0  0  0  0  0  0  0  0
   38.8819   81.2889   51.0626 C   0  0  0  0  0  0  0  0  0  0  0  0
   37.5047   81.1573   50.6690 N   0  0  0  0  0  0  0  0  0  0  0  0
   36.4909   82.1179   50.8320 C   0  0  0  0  0  0  0  0  0  0  0  0
   36.7737   83.1982   51.4046 O   0  0  0  0  0  0  0  0  0  0  0  0
   35.1206   81.9089   50.3612 C   0  0  0  0  0  0  0  0  0  0  0  0
   34.6958   81.1857   49.2653 C   0  0  0  0  0  0  0  0  0  0  0  0
   33.3538   81.2426   49.1817 N   0  0  0  0  0  0  0  0  0  0  0  0
   32.9116   81.9782   50.1883 N   0  0  0  0  0  0  0  0  0  0  0  0
   31.5545   82.2941   50.4765 C   0  0  0  0  0  0  0  0  0  0  0  0
   30.6546   82.5539   49.4503 C   0  0  0  0  0  0  0  0  0  0  0  0
   29.3344   82.8621   49.7094 C   0  0  0  0  0  0  0  0  0  0  0  0
   28.8571   82.9240   51.0001 C   0  0  0  0  0  0  0  0  0  0  0  0
   29.7467   82.6669   52.0190 C   0  0  0  0  0  0  0  0  0  0  0  0
   31.0706   82.3576   51.7664 C   0  0  0  0  0  0  0  0  0  0  0  0
   31.9529   82.1024   52.7806 F   0  0  0  0  0  0  0  0  0  0  0  0
   33.9668   82.4032   50.9319 C   0  0  0  0  0  0  0  0  0  0  0  0
   40.4384   80.2960   52.7395 N   0  0  0  0  0  0  0  0  0  0  0  0
   41.6467   80.6157   52.0089 C   0  0  0  0  0  0  0  0  0  0  0  0
   40.3701   79.6736   53.9117 N   0  0  0  0  0  0  0  0  0  0  0  0
  1  2  1  0
  2  3  1  0
  3  4  2  0
  4  5  1  0
  5  6  1  0
  6  7  1  0
  7  8  2  0
  7  9  1  0
  9 10  1  0
 10 11  2  0
 11 12  1  0
 12 13  1  0
 13 14  2  0
 14 15  1  0
 15 16  2  0
 16 17  1  0
 17 18  2  0
 18 19  1  0
 12 20  1  0
  4 21  1  0
 21 22  1  0
 21 23  1  0
 23  2  2  0
 20  9  2  0
 18 13  1  0
M  END
$$$$
