
     RDKit          3D

 38 43  0  0  0  0  0  0  0  0999 V2000
   17.0746  101.6988   55.7233 C   0  0  0  0  0  0  0  0  0  0  0  0
   17.1528  101.7152   54.2273 C   0  0  0  0  0  0  0  0  0  0  0  0
   18.2787  101.8886   53.6591 O   0  0  0  0  0  0  0  0  0  0  0  0
   16.0230  101.5450   53.4148 N   0  0  0  0  0  0  0  0  0  0  0  0
   16.1501  101.4837   51.9799 C   0  0  0  0  0  0  0  0  0  0  0  0
   14.7943  101.6759   51.3157 C   0  0  0  0  0  0  0  0  0  0  0  0
   13.7317  100.7721   51.8370 C   0  0  0  0  0  0  0  0  0  0  0  0
   14.0224  100.2976   53.2195 C   0  0  0  0  0  0  0  0  0  0  0  0
   12.7915   99.8727   53.9476 C   0  0  0  0  0  0  0  0  0  0  0  0
   11.7009   99.4313   53.2313 C   0  0  0  0  0  0  0  0  0  0  0  0
   10.5881   99.0475   53.8939 N   0  0  0  0  0  0  0  0  0  0  0  0
   10.5050   99.0813   55.2531 C   0  0  0  0  0  0  0  0  0  0  0  0
   11.5622   99.5115   56.0196 C   0  0  0  0  0  0  0  0  0  0  0  0
   11.5873   99.5599   57.4681 C   0  0  0  0  0  0  0  0  0  0  0  0
   11.1468  100.7079   58.1411 C   0  0  0  0  0  0  0  0  0  0  0  0
   11.1308  100.7703   59.5107 C   0  0  0  0  0  0  0  0  0  0  0  0
   11.5609   99.6712   60.2584 C   0  0  0  0  0  0  0  0  0  0  0  0
   11.9937   98.5455   59.6017 C   0  0  0  0  0  0  0  0  0  0  0  0
   12.4265   97.4455   60.3812 N   0  0  0  0  0  0  0  0  0  0  0  0
   13.7162   97.0918   60.4695 C   0  0  0  0  0  0  0  0  0  0  0  0
   14.1509   96.0187   61.2311 C   0  0  0  0  0  0  0  0  0  0  0  0
   13.2116   95.2743   61.9358 C   0  0  0  0  0  0  0  0  0  0  0  0
   13.5892   94.2010   62.7070 C   0  0  0  0  0  0  0  0  0  0  0  0
   12.6272   93.4897   63.3908 C   0  0  0  0  0  0  0  0  0  0  0  0
   12.9705   92.3173   64.2443 C   0  0  0  0  0  0  0  0  0  0  0  0
   14.2770   92.3590   64.9408 C   0  0  0  0  0  0  0  0  0  0  0  0
   14.1074   91.4698   63.7368 C   0  0  0  0  0  0  0  0  0  0  0  0
   11.3062   93.8764   63.2816 C   0  0  0  0  0  0  0  0  0  0  0  0
   10.9202   94.9471   62.5134 C   0  0  0  0  0  0  0  0  0  0  0  0
    9.6339   95.3406   62.3943 F   0  0  0  0  0  0  0  0  0  0  0  0
   11.8905   95.6568   61.8298 C   0  0  0  0  0  0  0  0  0  0  0  0
   11.5075   96.7386   61.0539 C   0  0  0  0  0  0  0  0  0  0  0  0
   10.2705   97.0571   60.9849 O   0  0  0  0  0  0  0  0  0  0  0  0
   12.0099   98.4834   58.1960 C   0  0  0  0  0  0  0  0  0  0  0  0
   12.5105   97.2782   57.5065 C   0  0  0  0  0  0  0  0  0  0  0  0
   11.5541   96.2587   57.4859 O   0  0  0  0  0  0  0  0  0  0  0  0
   12.7030   99.9039   55.3037 C   0  0  0  0  0  0  0  0  0  0  0  0
   14.7133  101.4284   53.9931 C   0  0  0  0  0  0  0  0  0  0  0  0
  1  2  1  0
  2  3  2  0
  2  4  1  0
  4  5  1  0
  5  6  1  0
  6  7  1  0
  7  8  1  0
  8  9  1  0
  9 10  2  0
 10 11  1  0
 11 12  2  0
 12 13  1  0
 13 14  1  0
 14 15  2  0
 15 16  1  0
 16 17  2  0
 17 18  1  0
 18 19  1  0
 19 20  1  0
 20 21  2  0
 21 22  1  0
 22 23  2  0
 23 24  1  0
 24 25  1  0
 25 26  1  0
 26 27  1  0
 24 28  2  0
 28 29  1  0
 29 30  1  0
 29 31  2  0
 31 32  1  0
 32 33  2  0
 18 34  2  0
 34 35  1  0
 35 36  1  0
 13 37  2  0
  8 38  1  0
 38  4  1  0
 37  9  1  0
 34 14  1  0
 32 19  1  0
 31 22  1  0
 27 25  1  0
M  END
$$$$
