
     RDKit          3D

 22 25  0  0  0  0  0  0  0  0999 V2000
   13.1618   94.2894   63.5940 C   0  0  0  0  0  0  0  0  0  0  0  0
   12.1913   95.1064   62.8404 C   0  0  0  0  0  0  0  0  0  0  0  0
   11.0514   95.4466   62.8814 N   0  0  0  0  0  0  0  0  0  0  0  0
   10.3744   96.2019   62.0773 C   0  0  0  0  0  0  0  0  0  0  0  0
   11.0516   96.7200   60.9752 C   0  0  0  0  0  0  0  0  0  0  0  0
   10.6787   97.5681   59.8914 C   0  0  0  0  0  0  0  0  0  0  0  0
   11.7309   97.7540   58.9830 N   0  0  0  0  0  0  0  0  0  0  0  0
   12.3191   98.9982   58.9492 C   0  0  0  0  0  0  0  0  0  0  0  0
   13.4106   99.2458   57.9547 C   0  0  0  0  0  0  0  0  0  0  0  0
   13.2345   98.3553   56.8334 N   0  0  0  0  0  0  0  0  0  0  0  0
   13.1628   98.8300   55.5102 C   0  0  0  0  0  0  0  0  0  0  0  0
   12.4159   98.3970   54.4794 N   0  0  0  0  0  0  0  0  0  0  0  0
   12.7066   99.1768   53.4319 N   0  0  0  0  0  0  0  0  0  0  0  0
   13.6167  100.0910   53.7719 C   0  0  0  0  0  0  0  0  0  0  0  0
   14.2406  101.1148   53.0735 C   0  0  0  0  0  0  0  0  0  0  0  0
   15.1495  101.9060   53.7131 C   0  0  0  0  0  0  0  0  0  0  0  0
   15.4592  101.7073   55.0406 C   0  0  0  0  0  0  0  0  0  0  0  0
   14.8089  100.6715   55.6940 C   0  0  0  0  0  0  0  0  0  0  0  0
   13.9111   99.8849   55.0722 N   0  0  0  0  0  0  0  0  0  0  0  0
   13.1285   96.9377   57.1514 C   0  0  0  0  0  0  0  0  0  0  0  0
   11.9954   96.7036   58.1335 C   0  0  0  0  0  0  0  0  0  0  0  0
   12.7393   95.9839   61.2626 S   0  0  0  0  0  0  0  0  0  0  0  0
  1  2  1  0
  2  3  2  0
  3  4  1  0
  4  5  2  0
  5  6  1  0
  6  7  1  0
  7  8  1  0
  8  9  1  0
  9 10  1  0
 10 11  1  0
 11 12  2  0
 12 13  1  0
 13 14  2  0
 14 15  1  0
 15 16  2  0
 16 17  1  0
 17 18  2  0
 18 19  1  0
 10 20  1  0
 20 21  1  0
  5 22  1  0
 22  2  1  0
 21  7  1  0
 19 11  1  0
 19 14  1  0
M  END
$$$$
