
     RDKit          3D

 24 26  0  0  0  0  0  0  0  0999 V2000
   17.4547   57.1694   10.9434 C   0  0  0  0  0  0  0  0  0  0  0  0
   15.9674   56.8944   11.2321 C   0  0  0  0  0  0  0  0  0  0  0  0
   15.5833   55.5948   10.6594 C   0  0  0  0  0  0  0  0  0  0  0  0
   15.4515   54.4858   11.6446 C   0  0  0  0  0  0  0  0  0  0  0  0
   16.2915   54.7368   12.8805 C   0  0  0  0  0  0  0  0  0  0  0  0
   16.3134   53.4859   13.6535 C   0  0  0  0  0  0  0  0  0  0  0  0
   16.1863   52.2864   12.6846 C   0  0  0  0  0  0  0  0  0  0  0  0
   17.5815   53.1918   14.4277 C   0  0  0  0  0  0  0  0  0  0  0  0
   15.1331   53.2524   14.5690 C   0  0  0  0  0  0  0  0  0  0  0  0
   15.3226   52.0797   15.4625 C   0  0  0  0  0  0  0  0  0  0  0  0
   14.9228   54.4788   15.3672 C   0  0  0  0  0  0  0  0  0  0  0  0
   14.5845   55.6179   14.4034 C   0  0  0  0  0  0  0  0  0  0  0  0
   15.7979   55.9913   13.5754 C   0  0  0  0  0  0  0  0  0  0  0  0
   16.8979   56.3191   14.6117 C   0  0  0  0  0  0  0  0  0  0  0  0
   15.6325   57.1412   12.6828 C   0  0  0  0  0  0  0  0  0  0  0  0
   14.4048   58.0265   12.7613 C   0  0  0  0  0  0  0  0  0  0  0  0
   13.9340   57.8475   14.2401 C   0  0  0  0  0  0  0  0  0  0  0  0
   14.6362   59.4685   12.5933 C   0  0  0  0  0  0  0  0  0  0  0  0
   13.8083   60.1802   11.5506 C   0  0  0  0  0  0  0  0  0  0  0  0
   12.4160   59.6730   11.5791 C   0  0  0  0  0  0  0  0  0  0  0  0
   11.4072   60.4156   11.7069 O   0  0  0  0  0  0  0  0  0  0  0  0
   12.2803   58.2627   11.4499 N   0  0  0  0  0  0  0  0  0  0  0  0
   13.2598   57.4466   12.0340 C   0  0  0  0  0  0  0  0  0  0  0  0
   13.1536   56.2132   11.9348 O   0  0  0  0  0  0  0  0  0  0  0  0
  1  2  1  0
  2  3  1  0
  3  4  1  0
  4  5  1  0
  5  6  1  0
  6  7  1  0
  6  8  1  0
  6  9  1  0
  9 10  1  0
  9 11  1  0
 11 12  1  0
 12 13  1  0
 13 14  1  0
 13 15  1  0
 15 16  1  0
 16 17  1  0
 16 18  1  0
 18 19  1  0
 19 20  1  0
 20 21  2  0
 20 22  1  0
 22 23  1  0
 23 24  2  0
 15  2  1  0
 23 16  1  0
 13  5  1  0
M  END
$$$$
