
     RDKit          3D

 19 20  0  0  0  0  0  0  0  0999 V2000
   13.4231   90.9632   63.0227 C   0  0  0  0  0  0  0  0  0  0  0  0
   13.3965   92.2984   64.2339 S   0  0  0  0  0  0  0  0  0  0  0  0
   12.9126   93.8549   63.5097 C   0  0  0  0  0  0  0  0  0  0  0  0
   13.8278   94.4749   62.6949 C   0  0  0  0  0  0  0  0  0  0  0  0
   13.5254   95.7007   62.0871 C   0  0  0  0  0  0  0  0  0  0  0  0
   12.3096   96.2965   62.2996 C   0  0  0  0  0  0  0  0  0  0  0  0
   11.9966   97.5342   61.6896 N   0  0  0  0  0  0  0  0  0  0  0  0
   12.2591   97.8039   60.3186 C   0  0  0  0  0  0  0  0  0  0  0  0
   12.8646   96.8681   59.6921 O   0  0  0  0  0  0  0  0  0  0  0  0
   11.9012   99.0095   59.6270 C   0  0  0  0  0  0  0  0  0  0  0  0
   11.1479   99.9678   60.2360 C   0  0  0  0  0  0  0  0  0  0  0  0
   10.7913  101.1463   59.5764 C   0  0  0  0  0  0  0  0  0  0  0  0
   11.2103  101.3474   58.2782 C   0  0  0  0  0  0  0  0  0  0  0  0
   11.9773  100.3782   57.6498 C   0  0  0  0  0  0  0  0  0  0  0  0
   12.4094  100.5999   56.2921 C   0  0  0  0  0  0  0  0  0  0  0  0
   12.7543  100.7733   55.2005 N   0  0  0  0  0  0  0  0  0  0  0  0
   12.3241   99.2179   58.3094 C   0  0  0  0  0  0  0  0  0  0  0  0
   11.4010   95.6704   63.1150 C   0  0  0  0  0  0  0  0  0  0  0  0
   11.7037   94.4440   63.7229 C   0  0  0  0  0  0  0  0  0  0  0  0
  1  2  1  0
  2  3  1  0
  3  4  2  0
  4  5  1  0
  5  6  2  0
  6  7  1  0
  7  8  1  0
  8  9  2  0
  8 10  1  0
 10 11  2  0
 11 12  1  0
 12 13  2  0
 13 14  1  0
 14 15  1  0
 15 16  3  0
 14 17  2  0
  6 18  1  0
 18 19  2  0
 19  3  1  0
 17 10  1  0
M  END
$$$$
