
     RDKit          3D

 28 29  0  0  0  0  0  0  0  0999 V2000
   44.0528   80.5160   59.3775 C   0  0  0  0  0  0  0  0  0  0  0  0
   44.3129   81.2219   58.1835 O   0  0  0  0  0  0  0  0  0  0  0  0
   43.2899   81.3913   57.2741 C   0  0  0  0  0  0  0  0  0  0  0  0
   42.0509   80.8767   57.5425 C   0  0  0  0  0  0  0  0  0  0  0  0
   41.0231   81.0556   56.6123 C   0  0  0  0  0  0  0  0  0  0  0  0
   41.2315   81.7324   55.4440 C   0  0  0  0  0  0  0  0  0  0  0  0
   40.1508   81.9032   54.4990 C   0  0  0  0  0  0  0  0  0  0  0  0
   38.9494   81.4526   54.6671 C   0  0  0  0  0  0  0  0  0  0  0  0
   37.8717   81.6425   53.6874 C   0  0  0  0  0  0  0  0  0  0  0  0
   36.7463   81.1581   53.9636 O   0  0  0  0  0  0  0  0  0  0  0  0
   38.0042   82.3235   52.4675 N   0  0  0  0  0  0  0  0  0  0  0  0
   36.8699   82.4390   51.5970 C   0  0  0  0  0  0  0  0  0  0  0  0
   36.0006   83.5068   51.6946 C   0  0  0  0  0  0  0  0  0  0  0  0
   34.9050   83.6053   50.8438 C   0  0  0  0  0  0  0  0  0  0  0  0
   34.6567   82.6698   49.9030 N   0  0  0  0  0  4  0  0  0  0  0  0
   33.5103   82.8186   49.0484 C   0  0  0  0  0  0  0  0  0  0  0  0
   32.3656   82.1336   49.7218 C   0  0  0  0  0  0  0  0  0  0  0  0
   32.0552   80.8168   49.5330 C   0  0  0  0  0  0  0  0  0  0  0  0
   30.9942   80.2142   50.1679 C   0  0  0  0  0  0  0  0  0  0  0  0
   30.2107   80.9590   51.0275 C   0  0  0  0  0  0  0  0  0  0  0  0
   30.4996   82.2803   51.2347 C   0  0  0  0  0  0  0  0  0  0  0  0
   29.5081   83.2459   52.3301 Cl  0  0  0  0  0  0  0  0  0  0  0  0
   31.5663   82.8727   50.5920 C   0  0  0  0  0  0  0  0  0  0  0  0
   35.4983   81.6091   49.7875 C   0  0  0  0  0  0  0  0  0  0  0  0
   36.5896   81.4970   50.6241 C   0  0  0  0  0  0  0  0  0  0  0  0
   42.4900   82.2551   55.1716 C   0  0  0  0  0  0  0  0  0  0  0  0
   43.4881   82.0739   56.0889 C   0  0  0  0  0  0  0  0  0  0  0  0
   37.2437   81.7107   53.2474 Cl  0  0  0  0  0 15  0  0  0  0  0  0
  1  2  1  0
  2  3  1  0
  3  4  2  0
  4  5  1  0
  5  6  2  0
  6  7  1  0
  7  8  2  0
  8  9  1  0
  9 10  2  0
  9 11  1  0
 11 12  1  0
 12 13  2  0
 13 14  1  0
 14 15  2  0
 15 16  1  0
 16 17  1  0
 17 18  2  0
 18 19  1  0
 19 20  2  0
 20 21  1  0
 21 22  1  0
 21 23  2  0
 15 24  1  0
 24 25  2  0
  6 26  1  0
 26 27  2  0
 27  3  1  0
 25 12  1  0
 23 17  1  0
M  CHG  2  15   1  28  -1
M  END
$$$$
