
     RDKit          3D

 21 22  0  0  0  0  0  0  0  0999 V2000
   12.9255   94.1564   63.2002 C   0  0  0  0  0  0  0  0  0  0  0  0
   13.3177   95.4761   62.7132 N   0  0  0  0  0  0  0  0  0  0  0  0
   14.6635   95.7163   62.2440 C   0  0  0  0  0  0  0  0  0  0  0  0
   12.3887   96.5499   62.6897 C   0  0  0  0  0  0  0  0  0  0  0  0
   11.2019   96.3129   62.9890 O   0  0  0  0  0  0  0  0  0  0  0  0
   12.8187   97.9322   62.3159 C   0  0  0  0  0  0  0  0  0  0  0  0
   11.6770   98.5218   61.4044 C   0  0  0  0  0  0  0  0  0  0  0  0
   11.5925   97.6713   60.2271 C   0  0  0  0  0  0  0  0  0  0  0  0
   11.6622   98.1936   58.8704 C   0  0  0  0  0  0  0  0  0  0  0  0
   12.8730   98.7943   58.5411 N   0  0  0  0  0  0  0  0  0  0  0  0
   13.1116   99.3206   57.3442 C   0  0  0  0  0  0  0  0  0  0  0  0
   14.3285   99.9179   57.0317 C   0  0  0  0  0  0  0  0  0  0  0  0
   14.5780  100.4603   55.8025 C   0  0  0  0  0  0  0  0  0  0  0  0
   16.1014  101.2091   55.4080 Cl  0  0  0  0  0  0  0  0  0  0  0  0
   13.5953  100.4138   54.8458 C   0  0  0  0  0  0  0  0  0  0  0  0
   12.3753   99.8365   55.0997 C   0  0  0  0  0  0  0  0  0  0  0  0
   12.1480   99.2906   56.3631 C   0  0  0  0  0  0  0  0  0  0  0  0
   10.9579   98.7019   56.6812 C   0  0  0  0  0  0  0  0  0  0  0  0
   10.0780   98.6719   55.7923 O   0  0  0  0  0  0  0  0  0  0  0  0
   10.7481   98.1708   57.9225 N   0  0  0  0  0  0  0  0  0  0  0  0
    9.4273   97.5591   58.1167 C   0  0  0  0  0  0  0  0  0  0  0  0
  1  2  1  0
  2  3  1  0
  2  4  1  0
  4  5  2  0
  4  6  1  0
  6  7  1  0
  7  8  1  0
  8  9  1  0
  9 10  2  0
 10 11  1  0
 11 12  2  0
 12 13  1  0
 13 14  1  0
 13 15  2  0
 15 16  1  0
 16 17  2  0
 17 18  1  0
 18 19  2  0
 18 20  1  0
 20 21  1  0
 20  9  1  0
 17 11  1  0
M  END
$$$$
