
     RDKit          3D

 23 25  0  0  0  0  0  0  0  0999 V2000
   16.7020   55.1380   11.1038 C   0  0  0  0  0  0  0  0  0  0  0  0
   17.5330   54.3152   11.9664 N   0  0  0  0  0  0  0  0  0  0  0  0
   17.0017   53.2597   12.7232 C   0  0  0  0  0  0  0  0  0  0  0  0
   15.7859   52.9786   12.7112 O   0  0  0  0  0  0  0  0  0  0  0  0
   17.8589   52.4350   13.5675 N   0  0  0  0  0  0  0  0  0  0  0  0
   17.2763   51.3909   14.3021 C   0  0  0  0  0  0  0  0  0  0  0  0
   17.3296   51.2602   15.7219 C   0  0  0  0  0  0  0  0  0  0  0  0
   18.1147   52.2034   16.2777 O   0  0  0  0  0  0  0  0  0  0  0  0
   16.7781   50.4067   16.6565 N   0  0  0  0  0  0  0  0  0  0  0  0
   17.3045   50.1627   17.9641 C   0  0  0  0  0  0  0  0  0  0  0  0
   18.5777   49.3791   17.9071 C   0  0  0  0  0  0  0  0  0  0  0  0
   19.6967   49.4397   18.8306 C   0  0  0  0  0  0  0  0  0  0  0  0
   18.8050   48.2380   18.8379 C   0  0  0  0  0  0  0  0  0  0  0  0
   15.5044   49.7139   16.2777 C   0  0  0  0  0  0  0  0  0  0  0  0
   14.4939   50.6436   15.7381 C   0  0  0  0  0  0  0  0  0  0  0  0
   13.1695   49.9367   15.5493 C   0  0  0  0  0  0  0  0  0  0  0  0
   12.6319   49.4720   16.8937 C   0  0  0  0  0  0  0  0  0  0  0  0
   13.6838   48.7183   17.6211 C   0  0  0  0  0  0  0  0  0  0  0  0
   13.2409   47.8687   18.6069 C   0  0  0  0  0  0  0  0  0  0  0  0
   14.0945   47.0788   19.3485 C   0  0  0  0  0  0  0  0  0  0  0  0
   15.4348   47.1807   19.0520 C   0  0  0  0  0  0  0  0  0  0  0  0
   15.8715   48.0267   18.0715 C   0  0  0  0  0  0  0  0  0  0  0  0
   15.0105   48.8294   17.3184 C   0  0  0  0  0  0  0  0  0  0  0  0
  1  2  1  0
  2  3  1  0
  3  4  2  0
  3  5  1  0
  5  6  1  0
  6  7  1  0
  7  8  2  0
  7  9  1  0
  9 10  1  0
 10 11  1  0
 11 12  1  0
 12 13  1  0
  9 14  1  0
 14 15  1  0
 15 16  1  0
 16 17  1  0
 17 18  1  0
 18 19  2  0
 19 20  1  0
 20 21  2  0
 21 22  1  0
 22 23  2  0
 13 11  1  0
 23 14  1  0
 23 18  1  0
M  END
$$$$
