
     RDKit          3D

 20 22  0  0  0  0  0  0  0  0999 V2000
    9.6387   98.4259   61.4057 N   0  0  0  0  0  0  0  0  0  0  0  0
   10.1145   99.0505   60.5314 C   0  0  0  0  0  0  0  0  0  0  0  0
   10.7036   99.8159   59.4812 C   0  0  0  0  0  0  0  0  0  0  0  0
   11.1332  101.1381   59.5176 C   0  0  0  0  0  0  0  0  0  0  0  0
   11.6078  101.4435   58.3110 N   0  0  0  0  0  0  0  0  0  0  0  0
   11.5298  100.4111   57.4490 C   0  0  0  0  0  0  0  0  0  0  0  0
   11.9280  100.3604   56.0666 C   0  0  0  0  0  0  0  0  0  0  0  0
   11.4019  101.1490   55.2569 O   0  0  0  0  0  0  0  0  0  0  0  0
   12.8997   99.4470   55.5827 N   0  0  0  0  0  0  0  0  0  0  0  0
   13.3618   99.3733   54.2547 C   0  0  0  0  0  0  0  0  0  0  0  0
   14.5338  100.0644   53.7913 C   0  0  0  0  0  0  0  0  0  0  0  0
   15.3800  100.8082   54.6046 C   0  0  0  0  0  0  0  0  0  0  0  0
   16.4836  101.4582   54.1201 C   0  0  0  0  0  0  0  0  0  0  0  0
   16.7775  101.3880   52.8152 N   0  0  0  0  0  0  0  0  0  0  0  0
   16.0055  100.6891   51.9719 C   0  0  0  0  0  0  0  0  0  0  0  0
   14.8793  100.0252   52.4641 C   0  0  0  0  0  0  0  0  0  0  0  0
   13.4000   98.5065   56.5533 C   0  0  0  0  0  0  0  0  0  0  0  0
   12.6392   97.8520   57.6228 C   0  0  0  0  0  0  0  0  0  0  0  0
   13.4002   99.0692   58.0090 C   0  0  0  0  0  0  0  0  0  0  0  0
   10.9523   99.3793   58.2070 C   0  0  0  0  0  0  0  0  0  0  0  0
  1  2  3  0
  2  3  1  0
  3  4  2  0
  4  5  1  0
  5  6  1  0
  6  7  1  0
  7  8  2  0
  7  9  1  0
  9 10  1  0
 10 11  1  0
 11 12  2  0
 12 13  1  0
 13 14  2  0
 14 15  1  0
 15 16  2  0
  9 17  1  0
 17 18  1  0
 18 19  1  0
  6 20  2  0
 20  3  1  0
 16 11  1  0
 19 17  1  0
M  END
$$$$
