
     RDKit          3D

 30 32  0  0  0  0  0  0  0  0999 V2000
   13.3459   91.5636   65.4345 C   0  0  0  0  0  0  0  0  0  0  0  0
   12.7500   92.5048   64.4130 C   0  0  0  0  0  0  0  0  0  0  0  0
   13.5691   92.5049   63.1386 C   0  0  0  0  0  0  0  0  0  0  0  0
   12.9258   93.2832   62.1067 N   0  0  0  0  0  0  0  0  0  0  0  0
   13.0763   94.6799   62.1012 C   0  0  0  0  0  0  0  0  0  0  0  0
   13.3737   95.2219   63.2243 O   0  0  0  0  0  0  0  0  0  0  0  0
   12.9336   95.5211   60.9997 N   0  0  0  0  0  0  0  0  0  0  0  0
   11.9350   95.3136   60.0046 C   0  0  0  0  0  0  0  0  0  0  0  0
   11.4375   96.5309   59.3097 C   0  0  0  0  0  0  0  0  0  0  0  0
   12.4320   97.5920   59.1181 N   0  0  0  0  0  0  0  0  0  0  0  0
   11.8069   98.7919   58.6264 C   0  0  0  0  0  0  0  0  0  0  0  0
   11.8617   99.0248   57.1689 C   0  0  0  0  0  0  0  0  0  0  0  0
   13.0483   99.3101   56.4738 N   0  0  0  0  0  0  0  0  0  0  0  0
   13.0398   99.7206   55.1270 C   0  0  0  0  0  0  0  0  0  0  0  0
   11.8396   99.7487   54.6243 O   0  0  0  0  0  0  0  0  0  0  0  0
   14.1499  100.0963   54.2879 C   0  0  0  0  0  0  0  0  0  0  0  0
   14.4306   99.6932   53.0259 C   0  0  0  0  0  0  0  0  0  0  0  0
   13.3076   98.6316   52.1872 Cl  0  0  0  0  0  0  0  0  0  0  0  0
   15.5822  100.1301   52.3687 C   0  0  0  0  0  0  0  0  0  0  0  0
   16.4422  100.9507   52.9438 N   0  0  0  0  0  0  0  0  0  0  0  0
   16.2180  101.3851   54.1916 C   0  0  0  0  0  0  0  0  0  0  0  0
   15.0917  100.9710   54.8638 C   0  0  0  0  0  0  0  0  0  0  0  0
   14.8655  101.5760   56.4895 Cl  0  0  0  0  0  0  0  0  0  0  0  0
   12.2633  100.0471   59.3514 C   0  0  0  0  0  0  0  0  0  0  0  0
   11.3483  101.1900   59.2582 C   0  0  0  0  0  0  0  0  0  0  0  0
    9.9943  101.0322   58.7046 C   0  0  0  0  0  0  0  0  0  0  0  0
    9.5069   99.7097   58.2812 C   0  0  0  0  0  0  0  0  0  0  0  0
   10.2928   98.6146   58.9135 C   0  0  0  0  0  0  0  0  0  0  0  0
   12.8893   97.8034   60.5062 C   0  0  0  0  0  0  0  0  0  0  0  0
   13.8116   96.6539   60.8140 C   0  0  0  0  0  0  0  0  0  0  0  0
  1  2  1  0
  2  3  1  0
  3  4  1  0
  4  5  1  0
  5  6  2  0
  5  7  1  0
  7  8  1  0
  8  9  1  0
  9 10  1  0
 10 11  1  0
 11 12  1  0
 12 13  1  0
 13 14  1  0
 14 15  2  0
 14 16  1  0
 16 17  2  0
 17 18  1  0
 17 19  1  0
 19 20  2  0
 20 21  1  0
 21 22  2  0
 22 23  1  0
 11 24  1  0
 24 25  1  0
 25 26  1  0
 26 27  1  0
 27 28  1  0
 10 29  1  0
 29 30  1  0
 30  7  1  0
 28 11  1  0
 22 16  1  0
M  END
$$$$
