
     RDKit          3D

 27 28  0  0  0  0  0  0  0  0999 V2000
   34.8238   81.6987   45.7295 C   0  0  0  0  0  0  0  0  0  0  0  0
   33.5020   81.4337   45.2013 N   0  0  0  0  0  0  0  0  0  0  0  0
   32.3406   81.4164   46.0170 C   0  0  0  0  0  0  0  0  0  0  0  0
   32.3457   81.7695   47.3115 N   0  0  0  0  0  0  0  0  0  0  0  0
   31.2637   81.7637   48.1078 C   0  0  0  0  0  0  0  0  0  0  0  0
   31.3399   82.1501   49.4794 N   0  0  0  0  0  0  0  0  0  0  0  0
   32.5294   82.0344   50.2375 C   0  0  0  0  0  0  0  0  0  0  0  0
   33.6356   81.4454   49.6934 C   0  0  0  0  0  0  0  0  0  0  0  0
   34.8355   81.2996   50.3882 C   0  0  0  0  0  0  0  0  0  0  0  0
   34.8821   81.7789   51.6772 C   0  0  0  0  0  0  0  0  0  0  0  0
   36.0916   81.6672   52.4828 C   0  0  0  0  0  0  0  0  0  0  0  0
   36.1160   80.8369   53.4611 O   0  0  0  0  0  0  0  0  0  0  0  0
   37.2570   82.4077   52.2739 N   0  0  0  0  0  0  0  0  0  0  0  0
   37.2905   83.3938   51.2039 C   0  0  0  0  0  0  0  0  0  0  0  0
   38.4361   82.2527   53.0585 C   0  0  0  0  0  0  0  0  0  0  0  0
   38.6490   83.4030   54.0456 C   0  0  0  0  0  0  0  0  0  0  0  0
   39.8312   83.1166   54.7324 O   0  0  0  0  0  0  0  0  0  0  0  0
   33.7400   82.3794   52.2182 C   0  0  0  0  0  0  0  0  0  0  0  0
   32.5575   82.5278   51.5477 C   0  0  0  0  0  0  0  0  0  0  0  0
   31.4031   83.1042   52.0155 O   0  0  0  0  0  0  0  0  0  0  0  0
   30.4148   82.4237   52.7179 C   0  0  0  0  0  0  0  0  0  0  0  0
   29.1386   82.9258   52.4493 F   0  0  0  0  0  0  0  0  0  0  0  0
   30.3601   81.0783   52.3583 F   0  0  0  0  0  0  0  0  0  0  0  0
   30.1040   81.3767   47.5604 N   0  0  0  0  0  0  0  0  0  0  0  0
   29.9943   81.0070   46.2851 C   0  0  0  0  0  0  0  0  0  0  0  0
   31.1118   81.0183   45.4818 C   0  0  0  0  0  0  0  0  0  0  0  0
   31.0732   80.5518   43.7936 Cl  0  0  0  0  0  0  0  0  0  0  0  0
  1  2  1  0
  2  3  1  0
  3  4  2  0
  4  5  1  0
  5  6  1  0
  6  7  1  0
  7  8  2  0
  8  9  1  0
  9 10  2  0
 10 11  1  0
 11 12  2  0
 11 13  1  0
 13 14  1  0
 13 15  1  0
 15 16  1  0
 16 17  1  0
 10 18  1  0
 18 19  2  0
 19 20  1  0
 20 21  1  0
 21 22  1  0
 21 23  1  0
  5 24  2  0
 24 25  1  0
 25 26  2  0
 26 27  1  0
 26  3  1  0
 19  7  1  0
M  END
$$$$
