
     RDKit          3D

 26 28  0  0  0  0  0  0  0  0999 V2000
   16.5961  101.8817   53.1464 O   0  0  0  0  0  0  0  0  0  0  0  0
   15.8230  101.2237   53.8847 C   0  0  0  0  0  0  0  0  0  0  0  0
   15.7738  101.3832   55.2949 N   0  0  0  0  0  0  0  0  0  0  0  0
   14.8796  100.6146   56.0975 C   0  0  0  0  0  0  0  0  0  0  0  0
   14.9099  100.8281   57.3340 O   0  0  0  0  0  0  0  0  0  0  0  0
   13.9923   99.6538   55.5542 N   0  0  0  0  0  0  0  0  0  0  0  0
   13.1218   98.9167   56.4421 C   0  0  0  0  0  0  0  0  0  0  0  0
   12.2323   99.7525   57.2558 C   0  0  0  0  0  0  0  0  0  0  0  0
   11.8770   99.3581   58.5317 C   0  0  0  0  0  0  0  0  0  0  0  0
   11.0289  100.1467   59.3121 C   0  0  0  0  0  0  0  0  0  0  0  0
   10.5681  101.3137   58.7694 C   0  0  0  0  0  0  0  0  0  0  0  0
   10.9174  101.7110   57.5030 C   0  0  0  0  0  0  0  0  0  0  0  0
   11.7486  100.9354   56.7416 C   0  0  0  0  0  0  0  0  0  0  0  0
   14.0194   99.4723   54.1429 C   0  0  0  0  0  0  0  0  0  0  0  0
   13.2646   98.6455   53.6142 O   0  0  0  0  0  0  0  0  0  0  0  0
   14.9279  100.2470   53.2846 C   0  0  0  0  0  0  0  0  0  0  0  0
   14.9484  100.0724   51.9627 C   0  0  0  0  0  0  0  0  0  0  0  0
   15.7621  100.8608   51.1118 N   0  0  0  0  0  0  0  0  0  0  0  0
   15.2607  101.1851   49.7924 C   0  0  0  0  0  0  0  0  0  0  0  0
   16.3713  101.5239   48.8505 C   0  0  0  0  0  0  0  0  0  0  0  0
   17.0289  100.4203   48.2403 N   0  0  0  0  0  0  0  0  0  0  0  0
   16.2367   99.9915   47.1020 C   0  0  0  0  0  0  0  0  0  0  0  0
   16.2151  101.0874   46.0809 C   0  0  0  0  0  0  0  0  0  0  0  0
   17.4557  101.5268   45.6967 O   0  0  0  0  0  0  0  0  0  0  0  0
   18.3163  101.8555   46.7315 C   0  0  0  0  0  0  0  0  0  0  0  0
   18.3400  100.7796   47.7987 C   0  0  0  0  0  0  0  0  0  0  0  0
  1  2  2  0
  2  3  1  0
  3  4  1  0
  4  5  2  0
  4  6  1  0
  6  7  1  0
  7  8  1  0
  8  9  2  0
  9 10  1  0
 10 11  2  0
 11 12  1  0
 12 13  2  0
  6 14  1  0
 14 15  2  0
 14 16  1  0
 16 17  2  0
 17 18  1  0
 18 19  1  0
 19 20  1  0
 20 21  1  0
 21 22  1  0
 22 23  1  0
 23 24  1  0
 24 25  1  0
 25 26  1  0
 16  2  1  0
 26 21  1  0
 13  8  1  0
M  END
$$$$
