
     RDKit          3D

 38 43  0  0  0  0  0  0  0  0999 V2000
   15.4864   51.6404   15.5734 C   0  0  0  0  0  0  0  0  0  0  0  0
   15.5990   52.9650   15.2478 O   0  0  0  0  0  0  0  0  0  0  0  0
   15.9870   53.6421   14.1521 C   0  0  0  0  0  0  0  0  0  0  0  0
   16.8873   53.1697   13.2874 C   0  0  0  0  0  0  0  0  0  0  0  0
   17.3166   53.8803   12.0978 C   0  0  0  0  0  0  0  0  0  0  0  0
   18.1510   53.4469   11.2863 O   0  0  0  0  0  0  0  0  0  0  0  0
   19.0349   52.9865   10.4257 C   0  0  0  0  0  0  0  0  0  0  0  0
   16.6833   55.1294   11.9362 C   0  0  0  0  0  0  0  0  0  0  0  0
   17.1440   56.0612   10.4849 Cl  0  0  0  0  0  0  0  0  0  0  0  0
   15.7823   55.5957   12.8099 C   0  0  0  0  0  0  0  0  0  0  0  0
   15.0387   56.8244   12.5847 C   0  0  0  0  0  0  0  0  0  0  0  0
   13.7933   56.7011   11.9628 C   0  0  0  0  0  0  0  0  0  0  0  0
   13.0155   57.8244   11.9067 C   0  0  0  0  0  0  0  0  0  0  0  0
   11.7532   57.7980   11.3528 C   0  0  0  0  0  0  0  0  0  0  0  0
   10.9496   58.8787   11.3160 N   0  0  0  0  0  0  0  0  0  0  0  0
   11.3717   60.0324   11.8295 C   0  0  0  0  0  0  0  0  0  0  0  0
   10.5811   61.2196   11.7924 N   0  0  0  0  0  0  0  0  0  0  0  0
   11.1593   62.4796   12.2131 C   0  0  0  0  0  0  0  0  0  0  0  0
   12.2098   62.5072   13.0988 C   0  0  0  0  0  0  0  0  0  0  0  0
   12.8060   63.7068   13.5070 C   0  0  0  0  0  0  0  0  0  0  0  0
   12.3584   64.9087   13.0333 C   0  0  0  0  0  0  0  0  0  0  0  0
   12.9552   66.1587   13.4428 N   0  0  0  0  0  0  0  0  0  0  0  0
   13.0350   67.2913   12.5455 C   0  0  0  0  0  0  0  0  0  0  0  0
   12.4145   68.4833   13.2200 C   0  0  0  0  0  0  0  0  0  0  0  0
   12.5648   68.6080   14.5942 N   0  0  0  0  0  0  0  0  0  0  0  0
   12.6861   67.4512   15.4036 C   0  0  0  0  0  0  0  0  0  0  0  0
   13.5247   66.3631   14.7587 C   0  0  0  0  0  0  0  0  0  0  0  0
   11.3097   64.8839   12.1479 C   0  0  0  0  0  0  0  0  0  0  0  0
   10.7051   63.6880   11.7328 C   0  0  0  0  0  0  0  0  0  0  0  0
   12.6082   60.0815   12.3780 N   0  0  0  0  0  0  0  0  0  0  0  0
   13.4237   59.0254   12.4281 C   0  0  0  0  0  0  0  0  0  0  0  0
   14.6352   59.0830   13.0089 N   0  0  0  0  0  0  0  0  0  0  0  0
   15.3513   60.1239   13.5797 C   0  0  0  0  0  0  0  0  0  0  0  0
   16.4977   59.6741   13.9801 N   0  0  0  0  0  0  0  0  0  0  0  0
   16.6226   58.4019   13.7202 N   0  0  0  0  0  0  0  0  0  0  0  0
   15.4516   58.0206   13.1038 C   0  0  0  0  0  0  0  0  0  0  0  0
   15.3918   54.9011   13.9405 C   0  0  0  0  0  0  0  0  0  0  0  0
   14.2164   55.4972   15.0894 Cl  0  0  0  0  0  0  0  0  0  0  0  0
  1  2  1  0
  2  3  1  0
  3  4  2  0
  4  5  1  0
  5  6  1  0
  6  7  1  0
  5  8  2  0
  8  9  1  0
  8 10  1  0
 10 11  1  0
 11 12  2  0
 12 13  1  0
 13 14  2  0
 14 15  1  0
 15 16  2  0
 16 17  1  0
 17 18  1  0
 18 19  2  0
 19 20  1  0
 20 21  2  0
 21 22  1  0
 22 23  1  0
 23 24  1  0
 24 25  1  0
 25 26  1  0
 26 27  1  0
 21 28  1  0
 28 29  2  0
 16 30  1  0
 30 31  2  0
 31 32  1  0
 32 33  1  0
 33 34  2  0
 34 35  1  0
 35 36  2  0
 10 37  2  0
 37 38  1  0
 37  3  1  0
 36 11  1  0
 31 13  1  0
 36 32  1  0
 29 18  1  0
 27 22  1  0
M  END
$$$$
