
     RDKit          3D

 23 24  0  0  0  0  0  0  0  0999 V2000
    8.5526  100.1033   60.5697 C   0  0  0  0  0  0  0  0  0  0  0  0
    9.2748   99.0307   60.0024 O   0  0  0  0  0  0  0  0  0  0  0  0
   10.1266   99.3132   58.9319 C   0  0  0  0  0  0  0  0  0  0  0  0
    9.7223  100.1974   57.9599 C   0  0  0  0  0  0  0  0  0  0  0  0
   10.5696  100.4734   56.9030 C   0  0  0  0  0  0  0  0  0  0  0  0
   11.8059   99.8691   56.8233 C   0  0  0  0  0  0  0  0  0  0  0  0
   12.8766  100.2247   55.4715 Cl  0  0  0  0  0  0  0  0  0  0  0  0
   12.2091   98.9707   57.8171 C   0  0  0  0  0  0  0  0  0  0  0  0
   11.3861   98.6867   58.8673 C   0  0  0  0  0  0  0  0  0  0  0  0
   11.7294   97.7977   59.9052 N   0  0  0  0  0  0  0  0  0  0  0  0
   12.9532   97.7623   60.5659 C   0  0  0  0  0  0  0  0  0  0  0  0
   13.9992   98.2760   60.1308 O   0  0  0  0  0  0  0  0  0  0  0  0
   13.0544   97.0618   61.9041 C   0  0  0  0  0  0  0  0  0  0  0  0
   14.4216   97.3432   62.5138 C   0  0  0  0  0  0  0  0  0  0  0  0
   12.8764   95.6942   61.7988 O   0  0  0  0  0  0  0  0  0  0  0  0
   13.0648   94.7215   62.7428 C   0  0  0  0  0  0  0  0  0  0  0  0
   12.4341   94.7276   63.9611 C   0  0  0  0  0  0  0  0  0  0  0  0
   12.6245   93.7471   64.9164 C   0  0  0  0  0  0  0  0  0  0  0  0
   13.4878   92.7124   64.6362 C   0  0  0  0  0  0  0  0  0  0  0  0
   13.7285   91.6795   65.6074 C   0  0  0  0  0  0  0  0  0  0  0  0
   13.9369   90.8438   66.3768 N   0  0  0  0  0  0  0  0  0  0  0  0
   14.1394   92.6689   63.4257 C   0  0  0  0  0  0  0  0  0  0  0  0
   13.9364   93.6484   62.4963 C   0  0  0  0  0  0  0  0  0  0  0  0
  1  2  1  0
  2  3  1  0
  3  4  2  0
  4  5  1  0
  5  6  2  0
  6  7  1  0
  6  8  1  0
  8  9  2  0
  9 10  1  0
 10 11  1  0
 11 12  2  0
 11 13  1  0
 13 14  1  0
 13 15  1  0
 15 16  1  0
 16 17  2  0
 17 18  1  0
 18 19  2  0
 19 20  1  0
 20 21  3  0
 19 22  1  0
 22 23  2  0
  9  3  1  0
 23 16  1  0
M  END
$$$$
