
     RDKit          3D

 23 24  0  0  0  0  0  0  0  0999 V2000
   10.9035   92.4118   65.0186 C   0  0  0  0  0  0  0  0  0  0  0  0
   11.8279   93.4333   64.4327 C   0  0  0  0  0  0  0  0  0  0  0  0
   11.5457   94.6609   63.9800 N   0  0  0  0  0  0  0  0  0  0  0  0
   12.6195   95.2760   63.5338 N   0  0  0  0  0  0  0  0  0  0  0  0
   12.6093   96.6383   62.9793 C   0  0  0  0  0  0  0  0  0  0  0  0
   11.8453   96.6460   61.7005 C   0  0  0  0  0  0  0  0  0  0  0  0
   12.5495   95.8988   60.6080 C   0  0  0  0  0  0  0  0  0  0  0  0
   13.4299   96.8042   59.8177 C   0  0  0  0  0  0  0  0  0  0  0  0
   12.7056   97.5769   58.8018 N   0  0  0  0  0  0  0  0  0  0  0  0
   12.1602   98.8290   59.0989 C   0  0  0  0  0  0  0  0  0  0  0  0
   12.0870   99.1913   60.2966 O   0  0  0  0  0  0  0  0  0  0  0  0
   11.6732   99.7306   58.0764 C   0  0  0  0  0  0  0  0  0  0  0  0
   11.1552  100.9841   58.4565 C   0  0  0  0  0  0  0  0  0  0  0  0
   10.6728  101.9009   57.5622 C   0  0  0  0  0  0  0  0  0  0  0  0
   10.6985  101.5718   56.2140 C   0  0  0  0  0  0  0  0  0  0  0  0
   11.1825  100.3901   55.8072 N   0  0  0  0  0  0  0  0  0  0  0  0
   11.1830  100.1041   54.3885 C   0  0  0  0  0  0  0  0  0  0  0  0
   11.6573   99.4957   56.7262 C   0  0  0  0  0  0  0  0  0  0  0  0
   12.0880   98.4233   56.2597 O   0  0  0  0  0  0  0  0  0  0  0  0
   13.6618   94.4588   63.6810 C   0  0  0  0  0  0  0  0  0  0  0  0
   15.0530   94.7981   63.2907 C   0  0  0  0  0  0  0  0  0  0  0  0
   13.1969   93.2853   64.2463 C   0  0  0  0  0  0  0  0  0  0  0  0
   14.1432   91.8784   64.6527 Cl  0  0  0  0  0  0  0  0  0  0  0  0
  1  2  1  0
  2  3  2  0
  3  4  1  0
  4  5  1  0
  5  6  1  0
  6  7  1  0
  7  8  1  0
  8  9  1  0
  9 10  1  0
 10 11  2  0
 10 12  1  0
 12 13  2  0
 13 14  1  0
 14 15  2  0
 15 16  1  0
 16 17  1  0
 16 18  1  0
 18 19  2  0
  4 20  1  0
 20 21  1  0
 20 22  2  0
 22 23  1  0
 22  2  1  0
 18 12  1  0
M  END
$$$$
