
     RDKit          3D

 39 43  0  0  0  0  0  0  0  0999 V2000
   15.2012  101.5789   49.7283 C   0  0  0  0  0  0  0  0  0  0  0  0
   15.0327  101.0153   51.0420 N   0  0  0  0  0  0  0  0  0  0  0  0
   14.0250  100.2476   51.4093 N   0  0  0  0  0  0  0  0  0  0  0  0
   14.1592   99.8779   52.6940 C   0  0  0  0  0  0  0  0  0  0  0  0
   13.2620   99.0303   53.5017 C   0  0  0  0  0  0  0  0  0  0  0  0
   12.6360   97.9471   52.8940 C   0  0  0  0  0  0  0  0  0  0  0  0
   11.7789   97.1637   53.6345 C   0  0  0  0  0  0  0  0  0  0  0  0
   11.5262   97.4255   54.9573 C   0  0  0  0  0  0  0  0  0  0  0  0
   12.1542   98.5149   55.5736 C   0  0  0  0  0  0  0  0  0  0  0  0
   11.9170   98.7930   56.9300 N   0  0  0  0  0  0  0  0  0  0  0  0
   11.4016  100.0081   57.2057 C   0  0  0  0  0  0  0  0  0  0  0  0
   11.1512  100.3756   58.5037 C   0  0  0  0  0  0  0  0  0  0  0  0
   11.4336   99.4894   59.4997 C   0  0  0  0  0  0  0  0  0  0  0  0
   11.9633   98.2424   59.2042 C   0  0  0  0  0  0  0  0  0  0  0  0
   12.2301   97.3729   60.3343 C   0  0  0  0  0  0  0  0  0  0  0  0
   13.4241   97.3374   60.7938 O   0  0  0  0  0  0  0  0  0  0  0  0
   11.3284   96.5389   61.0125 N   0  0  0  0  0  0  0  0  0  0  0  0
   11.6520   95.9052   62.2630 C   0  0  0  0  0  0  0  0  0  0  0  0
   12.9125   95.4152   62.4980 C   0  0  0  0  0  0  0  0  0  0  0  0
   13.2163   94.7939   63.7247 C   0  0  0  0  0  0  0  0  0  0  0  0
   14.5779   94.2542   63.9899 C   0  0  0  0  0  0  0  0  0  0  0  0
   14.9633   93.4039   62.9497 F   0  0  0  0  0  0  0  0  0  0  0  0
   14.6026   93.5726   65.1891 F   0  0  0  0  0  0  0  0  0  0  0  0
   15.5003   95.2908   64.0119 F   0  0  0  0  0  0  0  0  0  0  0  0
   12.2209   94.6904   64.6772 C   0  0  0  0  0  0  0  0  0  0  0  0
   10.9441   95.1815   64.4516 C   0  0  0  0  0  0  0  0  0  0  0  0
   10.6856   95.7859   63.2339 C   0  0  0  0  0  0  0  0  0  0  0  0
    9.4500   96.2952   62.9324 F   0  0  0  0  0  0  0  0  0  0  0  0
   12.1961   97.9191   57.9048 C   0  0  0  0  0  0  0  0  0  0  0  0
   12.6855   96.7772   57.6021 O   0  0  0  0  0  0  0  0  0  0  0  0
   13.0041   99.2888   54.8331 C   0  0  0  0  0  0  0  0  0  0  0  0
   13.6560  100.3639   55.3670 F   0  0  0  0  0  0  0  0  0  0  0  0
   15.3196  100.4433   53.1744 C   0  0  0  0  0  0  0  0  0  0  0  0
   15.9617  100.4316   54.3809 C   0  0  0  0  0  0  0  0  0  0  0  0
   15.4524   99.7290   55.4957 N   0  0  0  0  0  0  0  0  0  0  0  0
   17.1096  101.1129   54.5288 N   0  0  0  0  0  0  0  0  0  0  0  0
   17.6183  101.7922   53.5135 C   0  0  0  0  0  0  0  0  0  0  0  0
   17.0088  101.8220   52.3174 N   0  0  0  0  0  0  0  0  0  0  0  0
   15.8415  101.1512   52.1058 C   0  0  0  0  0  0  0  0  0  0  0  0
  1  2  1  0
  2  3  1  0
  3  4  2  0
  4  5  1  0
  5  6  2  0
  6  7  1  0
  7  8  2  0
  8  9  1  0
  9 10  1  0
 10 11  1  0
 11 12  2  0
 12 13  1  0
 13 14  2  0
 14 15  1  0
 15 16  2  0
 15 17  1  0
 17 18  1  0
 18 19  2  0
 19 20  1  0
 20 21  1  0
 21 22  1  0
 21 23  1  0
 21 24  1  0
 20 25  2  0
 25 26  1  0
 26 27  2  0
 27 28  1  0
 14 29  1  0
 29 30  2  0
  9 31  2  0
 31 32  1  0
  4 33  1  0
 33 34  2  0
 34 35  1  0
 34 36  1  0
 36 37  2  0
 37 38  1  0
 38 39  2  0
 39  2  1  0
 31  5  1  0
 39 33  1  0
 29 10  1  0
 27 18  1  0
M  END
$$$$
