
     RDKit          3D

 29 30  0  0  0  0  0  0  0  0999 V2000
   18.8939   46.9684   20.0784 C   0  0  0  0  0  0  0  0  0  0  0  0
   17.8654   47.4764   19.6144 O   0  0  0  0  0  0  0  0  0  0  0  0
   16.7660   48.0938   19.1550 C   0  0  0  0  0  0  0  0  0  0  0  0
   16.6507   49.2800   18.5240 C   0  0  0  0  0  0  0  0  0  0  0  0
   15.4391   49.8520   18.0545 C   0  0  0  0  0  0  0  0  0  0  0  0
   15.5358   51.1145   17.2955 C   0  0  0  0  0  0  0  0  0  0  0  0
   16.2572   50.9838   15.9711 C   0  0  0  0  0  0  0  0  0  0  0  0
   15.6595   49.9502   15.0917 C   0  0  0  0  0  0  0  0  0  0  0  0
   17.6405   50.7347   16.2493 O   0  0  0  0  0  0  0  0  0  0  0  0
   16.2825   52.2241   15.2495 C   0  0  0  0  0  0  0  0  0  0  0  0
   16.3240   53.3334   14.5890 C   0  0  0  0  0  0  0  0  0  0  0  0
   16.3819   54.5186   13.8596 C   0  0  0  0  0  0  0  0  0  0  0  0
   15.5828   54.4654   12.5539 C   0  0  0  0  0  0  0  0  0  0  0  0
   15.5170   55.6921   12.0215 C   0  0  0  0  0  0  0  0  0  0  0  0
   15.9922   56.8985   12.3888 C   0  0  0  0  0  0  0  0  0  0  0  0
   15.6467   58.1359   11.7139 C   0  0  0  0  0  0  0  0  0  0  0  0
   14.3354   58.7707   12.0515 C   0  0  0  0  0  0  0  0  0  0  0  0
   14.1543   60.1838   11.5984 C   0  0  0  0  0  0  0  0  0  0  0  0
   14.2815   61.1064   12.7979 C   0  0  0  0  0  0  0  0  0  0  0  0
   13.1742   62.1335   12.7951 C   0  0  0  0  0  0  0  0  0  0  0  0
   11.8081   61.4437   13.0228 C   0  0  0  0  0  0  0  0  0  0  0  0
   11.3466   61.9607   14.2602 O   0  0  0  0  0  0  0  0  0  0  0  0
   16.7393   56.9192   13.6025 N   0  0  0  0  0  0  0  0  0  0  0  0
   16.7969   55.6857   14.1308 C   0  0  0  0  0  0  0  0  0  0  0  0
   14.2930   49.1610   18.2577 C   0  0  0  0  0  0  0  0  0  0  0  0
   12.9112   49.6582   17.9252 C   0  0  0  0  0  0  0  0  0  0  0  0
   14.3659   47.9355   18.9058 C   0  0  0  0  0  0  0  0  0  0  0  0
   15.5247   47.3883   19.3515 C   0  0  0  0  0  0  0  0  0  0  0  0
   15.6141   46.1437   20.0141 N   0  0  0  0  0  0  0  0  0  0  0  0
  1  2  1  0
  2  3  1  0
  3  4  2  0
  4  5  1  0
  5  6  1  0
  6  7  1  0
  7  8  1  0
  7  9  1  0
  7 10  1  0
 10 11  3  0
 11 12  1  0
 12 13  2  0
 13 14  1  0
 14 15  2  0
 15 16  1  0
 16 17  1  0
 17 18  1  0
 18 19  1  0
 19 20  1  0
 20 21  1  0
 21 22  1  0
 15 23  1  0
 23 24  2  0
  5 25  2  0
 25 26  1  0
 25 27  1  0
 27 28  2  0
 28 29  1  0
 28  3  1  0
 24 12  1  0
M  END
$$$$
