
     RDKit          3D

 29 32  0  0  0  0  0  0  0  0999 V2000
   42.9005   85.7852   45.1220 C   0  0  0  0  0  0  0  0  0  0  0  0
   42.3972   84.7981   46.1354 C   0  0  0  0  0  0  0  0  0  0  0  0
   41.5309   85.3769   47.0620 O   0  0  0  0  0  0  0  0  0  0  0  0
   40.8125   84.6638   47.9952 C   0  0  0  0  0  0  0  0  0  0  0  0
   41.4315   84.1499   49.1060 C   0  0  0  0  0  0  0  0  0  0  0  0
   40.6707   83.4390   50.0231 C   0  0  0  0  0  0  0  0  0  0  0  0
   39.3320   83.2271   49.8701 C   0  0  0  0  0  0  0  0  0  0  0  0
   38.5334   82.4816   50.8278 C   0  0  0  0  0  0  0  0  0  0  0  0
   37.1603   82.4966   50.8792 C   0  0  0  0  0  0  0  0  0  0  0  0
   36.4280   81.7778   51.8010 C   0  0  0  0  0  0  0  0  0  0  0  0
   34.9730   81.8162   51.8270 C   0  0  0  0  0  0  0  0  0  0  0  0
   34.3494   81.5460   52.8963 O   0  0  0  0  0  0  0  0  0  0  0  0
   34.1922   82.1479   50.6917 N   0  0  0  0  0  0  0  0  0  0  0  0
   32.7874   82.2863   50.8199 C   0  0  0  0  0  0  0  0  0  0  0  0
   32.1796   82.7429   51.9616 C   0  0  0  0  0  0  0  0  0  0  0  0
   30.8058   82.8781   52.0817 C   0  0  0  0  0  0  0  0  0  0  0  0
   30.0282   82.5340   50.9960 C   0  0  0  0  0  0  0  0  0  0  0  0
   28.2639   82.6738   51.0608 Cl  0  0  0  0  0  0  0  0  0  0  0  0
   30.5907   82.0759   49.8417 C   0  0  0  0  0  0  0  0  0  0  0  0
   31.9596   81.9510   49.7485 C   0  0  0  0  0  0  0  0  0  0  0  0
   37.1415   81.0179   52.7001 C   0  0  0  0  0  0  0  0  0  0  0  0
   36.5029   80.2635   53.6594 C   0  0  0  0  0  0  0  0  0  0  0  0
   37.1757   79.4934   54.5719 C   0  0  0  0  0  0  0  0  0  0  0  0
   38.5536   79.4543   54.5510 C   0  0  0  0  0  0  0  0  0  0  0  0
   39.2075   80.1996   53.6022 C   0  0  0  0  0  0  0  0  0  0  0  0
   38.5291   80.9739   52.6840 C   0  0  0  0  0  0  0  0  0  0  0  0
   39.1672   81.7019   51.7554 N   0  0  0  0  0  0  0  0  0  0  0  0
   38.7267   83.7577   48.7356 C   0  0  0  0  0  0  0  0  0  0  0  0
   39.4533   84.4671   47.8076 C   0  0  0  0  0  0  0  0  0  0  0  0
  1  2  1  0
  2  3  1  0
  3  4  1  0
  4  5  2  0
  5  6  1  0
  6  7  2  0
  7  8  1  0
  8  9  2  0
  9 10  1  0
 10 11  1  0
 11 12  2  0
 11 13  1  0
 13 14  1  0
 14 15  2  0
 15 16  1  0
 16 17  2  0
 17 18  1  0
 17 19  1  0
 19 20  2  0
 10 21  2  0
 21 22  1  0
 22 23  2  0
 23 24  1  0
 24 25  2  0
 25 26  1  0
 26 27  2  0
  7 28  1  0
 28 29  2  0
 29  4  1  0
 27  8  1  0
 20 14  1  0
 26 21  1  0
M  END
$$$$
