
     RDKit          3D

 22 24  0  0  0  0  0  0  0  0999 V2000
   13.5773   64.4688   14.7151 C   0  0  0  0  0  0  0  0  0  0  0  0
   12.7204   63.5099   13.8991 C   0  0  0  0  0  0  0  0  0  0  0  0
   13.6143   62.8752   12.8771 C   0  0  0  0  0  0  0  0  0  0  0  0
   13.1874   61.5462   12.4875 N   0  0  0  0  0  0  0  0  0  0  0  0
   12.0279   61.3796   11.7956 C   0  0  0  0  0  0  0  0  0  0  0  0
   11.3832   62.4275   11.5307 O   0  0  0  0  0  0  0  0  0  0  0  0
   11.5976   60.1763   11.4191 N   0  0  0  0  0  0  0  0  0  0  0  0
   12.2930   59.0663   11.7064 C   0  0  0  0  0  0  0  0  0  0  0  0
   11.8229   57.9398   11.3200 O   0  0  0  0  0  0  0  0  0  0  0  0
   13.4736   59.1542   12.4003 C   0  0  0  0  0  0  0  0  0  0  0  0
   14.2191   58.0485   12.7328 C   0  0  0  0  0  0  0  0  0  0  0  0
   13.7025   56.4418   12.1721 S   0  0  0  0  0  0  0  0  0  0  0  0
   15.0167   55.2395   12.0717 C   0  0  0  0  0  0  0  0  0  0  0  0
   16.0130   55.5424   11.0525 C   0  0  0  0  0  0  0  0  0  0  0  0
   16.8029   55.7858   10.2623 N   0  0  0  0  0  0  0  0  0  0  0  0
   15.3511   58.2482   13.4324 N   0  0  0  0  0  0  0  0  0  0  0  0
   15.7761   59.4614   13.8110 C   0  0  0  0  0  0  0  0  0  0  0  0
   17.0413   59.5840   14.5844 C   0  0  0  0  0  0  0  0  0  0  0  0
   17.1590   58.5838   15.7113 C   0  0  0  0  0  0  0  0  0  0  0  0
   18.0663   58.5214   14.5334 C   0  0  0  0  0  0  0  0  0  0  0  0
   15.0440   60.5383   13.4809 N   0  0  0  0  0  0  0  0  0  0  0  0
   13.8833   60.4407   12.7753 C   0  0  0  0  0  0  0  0  0  0  0  0
  1  2  1  0
  2  3  1  0
  3  4  1  0
  4  5  1  0
  5  6  2  0
  5  7  1  0
  7  8  1  0
  8  9  2  0
  8 10  1  0
 10 11  2  0
 11 12  1  0
 12 13  1  0
 13 14  1  0
 14 15  3  0
 11 16  1  0
 16 17  2  0
 17 18  1  0
 18 19  1  0
 19 20  1  0
 17 21  1  0
 21 22  2  0
 22  4  1  0
 22 10  1  0
 20 18  1  0
M  END
$$$$
