
     RDKit          3D

 37 40  0  0  0  0  0  0  0  0999 V2000
   15.3975   93.4883   63.5295 C   0  0  0  0  0  0  0  0  0  0  0  0
   13.9298   93.7921   63.5807 C   0  0  0  0  0  0  0  0  0  0  0  0
   13.0493   92.9792   64.2754 C   0  0  0  0  0  0  0  0  0  0  0  0
   11.6982   93.2680   64.3280 C   0  0  0  0  0  0  0  0  0  0  0  0
   11.1907   94.3905   63.6805 C   0  0  0  0  0  0  0  0  0  0  0  0
    9.8885   94.7193   63.7011 F   0  0  0  0  0  0  0  0  0  0  0  0
   12.0472   95.2202   62.9794 C   0  0  0  0  0  0  0  0  0  0  0  0
   11.6456   96.3917   62.3037 N   0  0  0  0  0  0  0  0  0  0  0  0
   12.2281   96.8516   61.0835 C   0  0  0  0  0  0  0  0  0  0  0  0
   13.1467   96.1844   60.6127 O   0  0  0  0  0  0  0  0  0  0  0  0
   11.7723   98.0243   60.4400 N   0  0  0  0  0  0  0  0  0  0  0  0
   12.1709   98.4764   59.1644 C   0  0  0  0  0  0  0  0  0  0  0  0
   12.3570   99.7575   58.7622 C   0  0  0  0  0  0  0  0  0  0  0  0
   12.7721  100.0642   57.4552 C   0  0  0  0  0  0  0  0  0  0  0  0
   13.0052   99.0798   56.5368 C   0  0  0  0  0  0  0  0  0  0  0  0
   13.4121   99.3086   55.2511 O   0  0  0  0  0  0  0  0  0  0  0  0
   14.2991  100.2720   54.8241 C   0  0  0  0  0  0  0  0  0  0  0  0
   14.8783  101.1414   55.7089 C   0  0  0  0  0  0  0  0  0  0  0  0
   15.7793  102.1175   55.2822 C   0  0  0  0  0  0  0  0  0  0  0  0
   16.0398  102.1475   53.9575 N   0  0  0  0  0  0  0  0  0  0  0  0
   15.5194  101.3413   53.0469 C   0  0  0  0  0  0  0  0  0  0  0  0
   15.8716  101.4221   51.6413 C   0  0  0  0  0  0  0  0  0  0  0  0
   15.4398  100.6110   50.6097 C   0  0  0  0  0  0  0  0  0  0  0  0
   15.9959  101.0465   49.4254 C   0  0  0  0  0  0  0  0  0  0  0  0
   15.7521  100.4272   48.1348 C   0  0  0  0  0  0  0  0  0  0  0  0
   15.0234   99.4188   48.0079 O   0  0  0  0  0  0  0  0  0  0  0  0
   16.3989  101.0417   47.0067 N   0  0  0  0  0  0  0  0  0  0  0  0
   16.5941  100.0737   45.7639 S   0  0  0  0  0  6  0  0  0  0  0  0
   17.7205  100.9417   44.6789 C   0  0  0  0  0  0  0  0  0  0  0  0
   15.0482   99.7316   44.9814 C   0  0  0  0  0  0  0  0  0  0  0  0
   17.2700   98.8423   46.2916 O   0  0  0  0  0  0  0  0  0  0  0  0
   16.7748  102.1353   49.7455 C   0  0  0  0  0  0  0  0  0  0  0  0
   16.6849  102.3400   51.0711 N   0  0  0  0  0  0  0  0  0  0  0  0
   14.6148  100.3658   53.4924 C   0  0  0  0  0  0  0  0  0  0  0  0
   12.8165   97.7796   56.9435 C   0  0  0  0  0  0  0  0  0  0  0  0
   12.4097   97.4607   58.2202 C   0  0  0  0  0  0  0  0  0  0  0  0
   13.4095   94.8911   62.9497 C   0  0  0  0  0  0  0  0  0  0  0  0
  1  2  1  0
  2  3  2  0
  3  4  1  0
  4  5  2  0
  5  6  1  0
  5  7  1  0
  7  8  1  0
  8  9  1  0
  9 10  2  0
  9 11  1  0
 11 12  1  0
 12 13  2  0
 13 14  1  0
 14 15  2  0
 15 16  1  0
 16 17  1  0
 17 18  2  0
 18 19  1  0
 19 20  2  0
 20 21  1  0
 21 22  1  0
 22 23  2  0
 23 24  1  0
 24 25  1  0
 25 26  2  0
 25 27  1  0
 27 28  2  0
 28 29  1  0
 28 30  1  0
 28 31  2  0
 24 32  2  0
 32 33  1  0
 21 34  2  0
 15 35  1  0
 35 36  2  0
  7 37  2  0
 37  2  1  0
 36 12  1  0
 34 17  1  0
 33 22  1  0
M  END
$$$$
