
     RDKit          3D

 36 40  0  0  0  0  0  0  0  0999 V2000
   14.5666   46.6112   21.1212 C   0  0  0  0  0  0  0  0  0  0  0  0
   14.2526   46.6286   19.7528 O   0  0  0  0  0  0  0  0  0  0  0  0
   14.4857   47.7736   19.0275 C   0  0  0  0  0  0  0  0  0  0  0  0
   13.5824   48.2163   18.0696 C   0  0  0  0  0  0  0  0  0  0  0  0
   13.8266   49.3627   17.3507 C   0  0  0  0  0  0  0  0  0  0  0  0
   14.9692   50.1011   17.5597 C   0  0  0  0  0  0  0  0  0  0  0  0
   15.2244   51.2668   16.8332 C   0  0  0  0  0  0  0  0  0  0  0  0
   14.2965   51.6586   15.8979 F   0  0  0  0  0  0  0  0  0  0  0  0
   16.3675   51.9907   17.0531 C   0  0  0  0  0  0  0  0  0  0  0  0
   16.6484   53.1452   16.3526 O   0  0  0  0  0  0  0  0  0  0  0  0
   17.0790   53.0742   15.0279 C   0  0  0  0  0  0  0  0  0  0  0  0
   16.5171   53.8508   14.0693 N   0  0  0  0  0  0  0  0  0  0  0  0
   16.9013   53.8107   12.7957 C   0  0  0  0  0  0  0  0  0  0  0  0
   16.2977   54.6395   11.8515 N   0  0  0  0  0  0  0  0  0  0  0  0
   15.7594   55.9471   12.1063 C   0  0  0  0  0  0  0  0  0  0  0  0
   14.8055   56.6027   11.3378 C   0  0  0  0  0  0  0  0  0  0  0  0
   14.1861   56.0423   10.1251 C   0  0  0  0  0  0  0  0  0  0  0  0
   14.5302   57.8372   11.8769 C   0  0  0  0  0  0  0  0  0  0  0  0
   13.6007   58.8649   11.4123 C   0  0  0  0  0  0  0  0  0  0  0  0
   12.5637   58.5529   10.5593 C   0  0  0  0  0  0  0  0  0  0  0  0
   11.6733   59.5258   10.1137 C   0  0  0  0  0  0  0  0  0  0  0  0
   11.7943   60.8418   10.5089 C   0  0  0  0  0  0  0  0  0  0  0  0
   12.8302   61.1572   11.3620 C   0  0  0  0  0  0  0  0  0  0  0  0
   13.7107   60.1852   11.8004 C   0  0  0  0  0  0  0  0  0  0  0  0
   15.3191   57.9142   12.9635 N   0  0  0  0  0  0  0  0  0  0  0  0
   16.0432   56.7999   13.0979 N   0  0  0  0  0  0  0  0  0  0  0  0
   16.9800   56.5988   14.1728 C   0  0  0  0  0  0  0  0  0  0  0  0
   17.8759   52.9747   12.4484 N   0  0  0  0  0  0  0  0  0  0  0  0
   18.4926   52.1602   13.3514 C   0  0  0  0  0  0  0  0  0  0  0  0
   19.5041   51.3066   12.9358 O   0  0  0  0  0  0  0  0  0  0  0  0
   20.6525   51.8893   12.3417 C   0  0  0  0  0  0  0  0  0  0  0  0
   18.0599   52.2471   14.6228 N   0  0  0  0  0  0  0  0  0  0  0  0
   17.2608   51.5577   17.9967 C   0  0  0  0  0  0  0  0  0  0  0  0
   17.0440   50.4159   18.7310 C   0  0  0  0  0  0  0  0  0  0  0  0
   15.8800   49.6821   18.5044 C   0  0  0  0  0  0  0  0  0  0  0  0
   15.6208   48.5266   19.2200 C   0  0  0  0  0  0  0  0  0  0  0  0
  1  2  1  0
  2  3  1  0
  3  4  2  0
  4  5  1  0
  5  6  2  0
  6  7  1  0
  7  8  1  0
  7  9  2  0
  9 10  1  0
 10 11  1  0
 11 12  2  0
 12 13  1  0
 13 14  1  0
 14 15  1  0
 15 16  2  0
 16 17  1  0
 16 18  1  0
 18 19  1  0
 19 20  2  0
 20 21  1  0
 21 22  2  0
 22 23  1  0
 23 24  2  0
 18 25  2  0
 25 26  1  0
 26 27  1  0
 13 28  2  0
 28 29  1  0
 29 30  1  0
 30 31  1  0
 29 32  2  0
  9 33  1  0
 33 34  2  0
 34 35  1  0
 35 36  2  0
 36  3  1  0
 35  6  1  0
 32 11  1  0
 26 15  1  0
 24 19  1  0
M  END
$$$$
