
     RDKit          3D

 21 24  0  0  0  0  0  0  0  0999 V2000
   12.1023   62.3191   12.1933 C   0  0  0  0  0  0  0  0  0  0  0  0
   12.3392   60.8904   12.0371 N   0  0  0  0  0  0  0  0  0  0  0  0
   11.6949   60.0972   11.1953 N   0  0  0  0  0  0  0  0  0  0  0  0
   12.1656   58.8206   11.3078 C   0  0  0  0  0  0  0  0  0  0  0  0
   13.1478   58.8296   12.2662 C   0  0  0  0  0  0  0  0  0  0  0  0
   13.9662   57.8705   12.8031 C   0  0  0  0  0  0  0  0  0  0  0  0
   13.8517   56.1783   12.2336 S   0  0  0  0  0  0  0  0  0  0  0  0
   15.1273   55.1874   12.9821 C   0  0  0  0  0  0  0  0  0  0  0  0
   16.4742   55.3851   12.8015 C   0  0  0  0  0  0  0  0  0  0  0  0
   17.1149   54.4038   13.5548 C   0  0  0  0  0  0  0  0  0  0  0  0
   16.1116   53.6687   14.1482 C   0  0  0  0  0  0  0  0  0  0  0  0
   16.3164   52.5133   15.0460 C   0  0  0  0  0  0  0  0  0  0  0  0
   17.4962   51.9662   15.3860 N   0  0  0  0  0  0  0  0  0  0  0  0
   17.2437   50.9613   16.2007 N   0  0  0  0  0  0  0  0  0  0  0  0
   15.9167   50.8604   16.3848 C   0  0  0  0  0  0  0  0  0  0  0  0
   15.3964   51.8199   15.6668 O   0  0  0  0  0  0  0  0  0  0  0  0
   14.9588   54.1587   13.7883 O   0  0  0  0  0  0  0  0  0  0  0  0
   14.8611   58.1783   13.7574 N   0  0  0  0  0  0  0  0  0  0  0  0
   14.9295   59.4525   14.1689 C   0  0  0  0  0  0  0  0  0  0  0  0
   14.1415   60.4130   13.6620 N   0  0  0  0  0  0  0  0  0  0  0  0
   13.2466   60.1254   12.7132 C   0  0  0  0  0  0  0  0  0  0  0  0
  1  2  1  0
  2  3  1  0
  3  4  2  0
  4  5  1  0
  5  6  2  0
  6  7  1  0
  7  8  1  0
  8  9  2  0
  9 10  1  0
 10 11  2  0
 11 12  1  0
 12 13  2  0
 13 14  1  0
 14 15  2  0
 15 16  1  0
 11 17  1  0
  6 18  1  0
 18 19  2  0
 19 20  1  0
 20 21  2  0
 21  2  1  0
 21  5  1  0
 17  8  1  0
 16 12  1  0
M  END
$$$$
