
     RDKit          3D

 37 42  0  0  0  0  0  0  0  0999 V2000
   20.0119   52.8898   11.2279 C   0  0  0  0  0  0  0  0  0  0  0  0
   19.0592   52.2793   12.1816 C   0  0  0  0  0  0  0  0  0  0  0  0
   19.3661   52.3468   13.6270 C   0  0  0  0  0  0  0  0  0  0  0  0
   18.3216   51.6590   14.4241 C   0  0  0  0  0  0  0  0  0  0  0  0
   18.2094   50.2924   14.3253 N   0  0  0  0  0  0  0  0  0  0  0  0
   17.2691   49.8263   15.1551 C   0  0  0  0  0  0  0  0  0  0  0  0
   16.7743   48.5731   15.4472 C   0  0  0  0  0  0  0  0  0  0  0  0
   17.2983   47.3824   14.7621 C   0  0  0  0  0  0  0  0  0  0  0  0
   15.7812   48.4417   16.3886 C   0  0  0  0  0  0  0  0  0  0  0  0
   15.2677   49.5417   17.0496 C   0  0  0  0  0  0  0  0  0  0  0  0
   14.2201   49.4271   18.0460 C   0  0  0  0  0  0  0  0  0  0  0  0
   13.7553   48.2254   18.4963 N   0  0  0  0  0  0  0  0  0  0  0  0
   12.8431   48.4637   19.3595 O   0  0  0  0  0  0  0  0  0  0  0  0
   12.6835   49.7699   19.5005 C   0  0  0  0  0  0  0  0  0  0  0  0
   11.6170   50.4598   20.5066 S   0  0  0  0  0  0  0  0  0  0  0  0
   13.5445   50.3958   18.6791 N   0  0  0  0  0  0  0  0  0  0  0  0
   15.7891   50.7716   16.7280 C   0  0  0  0  0  0  0  0  0  0  0  0
   16.7842   50.9642   15.7924 C   0  0  0  0  0  0  0  0  0  0  0  0
   17.4461   52.0695   15.3262 N   0  0  0  0  0  0  0  0  0  0  0  0
   17.1989   53.3759   15.8433 C   0  0  0  0  0  0  0  0  0  0  0  0
   16.2856   54.2588   15.1342 C   0  0  0  0  0  0  0  0  0  0  0  0
   15.8354   55.4846   15.5595 C   0  0  0  0  0  0  0  0  0  0  0  0
   14.9881   56.3054   14.8131 C   0  0  0  0  0  0  0  0  0  0  0  0
   14.5665   55.8844   13.5781 C   0  0  0  0  0  0  0  0  0  0  0  0
   13.6824   56.6949   12.7629 C   0  0  0  0  0  0  0  0  0  0  0  0
   12.5523   56.1384   12.2093 C   0  0  0  0  0  0  0  0  0  0  0  0
   11.6554   56.8336   11.4301 C   0  0  0  0  0  0  0  0  0  0  0  0
   11.9132   58.1509   11.2007 C   0  0  0  0  0  0  0  0  0  0  0  0
   13.0372   58.7240   11.7453 C   0  0  0  0  0  0  0  0  0  0  0  0
   13.9411   58.0271   12.5291 C   0  0  0  0  0  0  0  0  0  0  0  0
   15.1156   58.6986   13.0719 C   0  0  0  0  0  0  0  0  0  0  0  0
   16.4128   58.3642   13.0644 N   0  0  0  0  0  0  0  0  0  0  0  0
   17.0999   59.3159   13.6990 N   0  0  0  0  0  0  0  0  0  0  0  0
   16.2579   60.2471   14.1076 N   0  0  0  0  0  0  0  0  0  0  0  0
   15.0709   59.8696   13.7278 N   0  0  0  0  0  0  0  0  0  0  0  0
   14.9966   54.6589   13.1147 C   0  0  0  0  0  0  0  0  0  0  0  0
   15.8344   53.8627   13.8688 C   0  0  0  0  0  0  0  0  0  0  0  0
  1  2  1  0
  2  3  1  0
  3  4  1  0
  4  5  2  0
  5  6  1  0
  6  7  2  0
  7  8  1  0
  7  9  1  0
  9 10  2  0
 10 11  1  0
 11 12  2  0
 12 13  1  0
 13 14  1  0
 14 15  2  0
 14 16  1  0
 10 17  1  0
 17 18  2  0
 18 19  1  0
 19 20  1  0
 20 21  1  0
 21 22  2  0
 22 23  1  0
 23 24  2  0
 24 25  1  0
 25 26  2  0
 26 27  1  0
 27 28  2  0
 28 29  1  0
 29 30  2  0
 30 31  1  0
 31 32  1  0
 32 33  2  0
 33 34  1  0
 34 35  1  0
 24 36  1  0
 36 37  2  0
 19  4  1  0
 37 21  1  0
 18  6  1  0
 30 25  1  0
 35 31  2  0
 16 11  1  0
M  END
$$$$
