
     RDKit          3D

 19 20  0  0  0  0  0  0  0  0999 V2000
   33.9033   80.4518   52.6612 O   0  0  0  0  0  0  0  0  0  0  0  0
   34.7825   81.2813   52.2681 C   0  0  0  0  0  0  0  0  0  0  0  0
   36.0996   81.1019   52.5976 C   0  0  0  0  0  0  0  0  0  0  0  0
   36.5684   79.9870   53.3934 C   0  0  0  0  0  0  0  0  0  0  0  0
   37.5586   80.1223   54.3310 C   0  0  0  0  0  0  0  0  0  0  0  0
   37.9716   79.0295   55.0653 C   0  0  0  0  0  0  0  0  0  0  0  0
   37.3915   77.7934   54.8615 C   0  0  0  0  0  0  0  0  0  0  0  0
   36.3935   77.6363   53.9226 C   0  0  0  0  0  0  0  0  0  0  0  0
   35.9991   78.7458   53.2018 C   0  0  0  0  0  0  0  0  0  0  0  0
   37.0071   82.0332   52.1433 C   0  0  0  0  0  0  0  0  0  0  0  0
   36.5913   83.0972   51.3891 C   0  0  0  0  0  0  0  0  0  0  0  0
   35.2430   83.2288   51.0857 C   0  0  0  0  0  0  0  0  0  0  0  0
   34.3583   82.3424   51.5142 N   0  0  0  0  0  0  0  0  0  0  0  0
   32.9526   82.4950   51.2011 C   0  0  0  0  0  0  0  0  0  0  0  0
   32.5084   81.7583   49.9797 C   0  0  0  0  0  0  0  0  0  0  0  0
   31.9191   82.5698   48.8835 C   0  0  0  0  0  0  0  0  0  0  0  0
   31.1966   81.8074   47.8215 C   0  0  0  0  0  0  0  0  0  0  0  0
   32.0245   81.8421   46.5392 C   0  0  0  0  0  0  0  0  0  0  0  0
   31.7477   80.7279   45.7601 O   0  0  0  0  0  0  0  0  0  0  0  0
  1  2  2  0
  2  3  1  0
  3  4  1  0
  4  5  2  0
  5  6  1  0
  6  7  2  0
  7  8  1  0
  8  9  2  0
  3 10  2  0
 10 11  1  0
 11 12  2  0
 12 13  1  0
 13 14  1  0
 14 15  1  0
 15 16  1  0
 16 17  1  0
 17 18  1  0
 18 19  1  0
 13  2  1  0
  9  4  1  0
M  END
$$$$
