
     RDKit          3D

 26 30  0  0  0  0  0  0  0  0999 V2000
   10.2680   96.4888   58.2131 O   0  0  0  0  0  0  0  0  0  0  0  0
   11.1915   97.1281   58.8031 C   0  0  0  0  0  0  0  0  0  0  0  0
   11.9327   96.4096   59.8329 C   0  0  0  0  0  0  0  0  0  0  0  0
   13.2955   96.2919   59.9918 C   0  0  0  0  0  0  0  0  0  0  0  0
   13.5309   95.5403   61.0744 N   0  0  0  0  0  0  0  0  0  0  0  0
   12.3948   95.1642   61.6269 N   0  0  0  0  0  0  0  0  0  0  0  0
   12.2382   94.3443   62.8064 C   0  0  0  0  0  0  0  0  0  0  0  0
   11.1450   94.4403   63.6346 C   0  0  0  0  0  0  0  0  0  0  0  0
   11.0364   93.6357   64.7601 C   0  0  0  0  0  0  0  0  0  0  0  0
   12.0114   92.7171   65.0891 C   0  0  0  0  0  0  0  0  0  0  0  0
   13.1085   92.6226   64.2549 C   0  0  0  0  0  0  0  0  0  0  0  0
   13.2126   93.4292   63.1312 C   0  0  0  0  0  0  0  0  0  0  0  0
   11.4129   95.6766   60.8963 C   0  0  0  0  0  0  0  0  0  0  0  0
   11.4115   98.4540   58.4123 N   0  0  0  0  0  0  0  0  0  0  0  0
   10.7926   99.2374   57.3416 C   0  0  0  0  0  0  0  0  0  0  0  0
   10.4319  100.5010   58.0901 C   0  0  0  0  0  0  0  0  0  0  0  0
   11.4611  100.6004   59.1970 C   0  0  0  0  0  0  0  0  0  0  0  0
   12.3424   99.3802   59.0142 C   0  0  0  0  0  0  0  0  0  0  0  0
   13.4668   99.7443   58.0774 C   0  0  0  0  0  0  0  0  0  0  0  0
   12.8883  100.4394   56.8813 C   0  0  0  0  0  0  0  0  0  0  0  0
   13.8835  100.7617   55.8923 N   0  0  0  0  0  0  0  0  0  0  0  0
   14.8603  101.6860   55.9010 C   0  0  0  0  0  0  0  0  0  0  0  0
   15.5409  101.6009   54.7185 C   0  0  0  0  0  0  0  0  0  0  0  0
   14.9562  100.6162   54.0124 N   0  0  0  0  0  0  0  0  0  0  0  0
   13.9721  100.1276   54.7263 N   0  0  0  0  0  0  0  0  0  0  0  0
   11.8140   99.5847   56.2653 C   0  0  0  0  0  0  0  0  0  0  0  0
  1  2  2  0
  2  3  1  0
  3  4  1  0
  4  5  2  0
  5  6  1  0
  6  7  1  0
  7  8  2  0
  8  9  1  0
  9 10  2  0
 10 11  1  0
 11 12  2  0
  6 13  1  0
  2 14  1  0
 14 15  1  0
 15 16  1  0
 16 17  1  0
 17 18  1  0
 18 19  1  0
 19 20  1  0
 20 21  1  0
 21 22  1  0
 22 23  2  0
 23 24  1  0
 24 25  2  0
 20 26  1  0
 13  3  2  0
 18 14  1  0
 25 21  1  0
 12  7  1  0
 26 15  1  0
M  END
$$$$
