
     RDKit          3D

 28 31  0  0  0  0  0  0  0  0999 V2000
   18.1430   54.3768   11.9965 C   0  0  0  0  0  0  0  0  0  0  0  0
   16.7822   53.1885   12.0946 S   0  0  0  0  0  0  0  0  0  0  0  0
   16.7105   52.3895   13.6811 C   0  0  0  0  0  0  0  0  0  0  0  0
   17.8263   52.0315   14.4063 C   0  0  0  0  0  0  0  0  0  0  0  0
   17.7266   51.4131   15.6337 C   0  0  0  0  0  0  0  0  0  0  0  0
   18.8093   51.0630   16.3408 N   0  0  0  0  0  0  0  0  0  0  0  0
   18.7743   50.4644   17.5277 C   0  0  0  0  0  0  0  0  0  0  0  0
   19.9827   50.1247   18.2155 N   0  0  0  0  0  0  0  0  0  0  0  0
   21.2761   50.4865   17.7254 C   0  0  0  0  0  0  0  0  0  0  0  0
   22.2885   49.3796   17.7856 C   0  0  0  0  0  0  0  0  0  0  0  0
   21.6583   48.1392   18.3370 C   0  0  0  0  0  0  0  0  0  0  0  0
   22.6617   47.0283   18.5287 C   0  0  0  0  0  0  0  0  0  0  0  0
   21.0709   48.4844   19.6922 C   0  0  0  0  0  0  0  0  0  0  0  0
   19.8933   49.3840   19.4591 C   0  0  0  0  0  0  0  0  0  0  0  0
   17.5604   50.1930   18.0522 N   0  0  0  0  0  0  0  0  0  0  0  0
   16.4049   50.4995   17.4309 C   0  0  0  0  0  0  0  0  0  0  0  0
   15.1325   50.2189   17.9790 N   0  0  0  0  0  0  0  0  0  0  0  0
   14.9064   49.8227   19.3654 C   0  0  0  0  0  0  0  0  0  0  0  0
   14.2947   48.4153   19.3044 C   0  0  0  0  0  0  0  0  0  0  0  0
   13.0134   48.5646   18.6595 N   0  0  0  0  0  0  0  0  0  0  0  0
   12.1112   49.3428   19.4677 C   0  0  0  0  0  0  0  0  0  0  0  0
   13.0875   49.0431   17.3140 C   0  0  0  0  0  0  0  0  0  0  0  0
   13.9089   50.3079   17.1663 C   0  0  0  0  0  0  0  0  0  0  0  0
   16.4839   51.1212   16.1982 C   0  0  0  0  0  0  0  0  0  0  0  0
   15.3742   51.4812   15.4692 C   0  0  0  0  0  0  0  0  0  0  0  0
   15.4836   52.1017   14.2376 C   0  0  0  0  0  0  0  0  0  0  0  0
   14.2937   52.4666   13.4979 C   0  0  0  0  0  0  0  0  0  0  0  0
   13.3317   52.7407   12.9060 N   0  0  0  0  0  0  0  0  0  0  0  0
  1  2  1  0
  2  3  1  0
  3  4  2  0
  4  5  1  0
  5  6  2  0
  6  7  1  0
  7  8  1  0
  8  9  1  0
  9 10  1  0
 10 11  1  0
 11 12  1  0
 11 13  1  0
 13 14  1  0
  7 15  2  0
 15 16  1  0
 16 17  1  0
 17 18  1  0
 18 19  1  0
 19 20  1  0
 20 21  1  0
 20 22  1  0
 22 23  1  0
 16 24  2  0
 24 25  1  0
 25 26  2  0
 26 27  1  0
 27 28  3  0
 26  3  1  0
 24  5  1  0
 14  8  1  0
 23 17  1  0
M  END
$$$$
