
     RDKit          3D

 20 21  0  0  0  0  0  0  0  0999 V2000
   14.7704   97.0822   54.9702 C   0  0  0  0  0  0  0  0  0  0  0  0
   14.7639   98.4455   55.3814 N   0  0  0  0  0  0  0  0  0  0  0  0
   15.8783   98.8694   56.1553 C   0  0  0  0  0  0  0  0  0  0  0  0
   13.4658   98.8666   55.9028 C   0  0  0  0  0  0  0  0  0  0  0  0
   13.1334   98.2148   57.1853 C   0  0  0  0  0  0  0  0  0  0  0  0
   11.7820   98.5122   57.7867 C   0  0  0  0  0  0  0  0  0  0  0  0
   11.7750   97.7391   59.0905 C   0  0  0  0  0  0  0  0  0  0  0  0
   11.9698   96.3833   59.0649 C   0  0  0  0  0  0  0  0  0  0  0  0
   12.0433   95.6274   60.2308 C   0  0  0  0  0  0  0  0  0  0  0  0
   11.9189   96.2423   61.4485 C   0  0  0  0  0  0  0  0  0  0  0  0
   11.7225   97.5965   61.4885 C   0  0  0  0  0  0  0  0  0  0  0  0
   11.6487   98.3458   60.3118 C   0  0  0  0  0  0  0  0  0  0  0  0
   11.4401   99.6898   60.3912 O   0  0  0  0  0  0  0  0  0  0  0  0
   11.3435  100.4876   59.2591 C   0  0  0  0  0  0  0  0  0  0  0  0
   11.1143  101.8206   59.3747 N   0  0  0  0  0  0  0  0  0  0  0  0
   10.9871  102.6684   58.3587 C   0  0  0  0  0  0  0  0  0  0  0  0
   11.0966  102.1458   57.0885 C   0  0  0  0  0  0  0  0  0  0  0  0
   11.3342  100.7776   56.9212 C   0  0  0  0  0  0  0  0  0  0  0  0
   11.4666   99.9186   57.9869 C   0  0  0  0  0  0  0  0  0  0  0  0
   12.2971   98.6942   58.3258 Cl  0  0  0  0  0  0  0  0  0  0  0  0
  1  2  1  0
  2  3  1  0
  2  4  1  0
  4  5  1  0
  5  6  1  0
  6  7  1  0
  7  8  2  0
  8  9  1  0
  9 10  2  0
 10 11  1  0
 11 12  2  0
 12 13  1  0
 13 14  1  0
 14 15  2  0
 15 16  1  0
 16 17  2  0
 17 18  1  0
 18 19  2  0
 19  6  1  0
 12  7  1  0
 19 14  1  0
M  END
$$$$
