
     RDKit          3D

 29 34  0  0  0  0  0  0  0  0999 V2000
   12.8397   98.7772   60.8902 C   0  0  0  0  0  0  0  0  0  0  0  0
   12.3558   97.5820   60.0830 C   0  0  0  0  0  0  0  0  0  0  0  0
   13.3923   96.5262   59.9421 C   0  0  0  0  0  0  0  0  0  0  0  0
   13.2685   95.3231   60.7922 C   0  0  0  0  0  0  0  0  0  0  0  0
   12.6125   95.6264   62.1166 C   0  0  0  0  0  0  0  0  0  0  0  0
   11.2367   96.1126   61.8267 C   0  0  0  0  0  0  0  0  0  0  0  0
   10.2276   94.9926   61.6585 C   0  0  0  0  0  0  0  0  0  0  0  0
   10.1957   94.1336   62.8773 C   0  0  0  0  0  0  0  0  0  0  0  0
   11.5844   93.4897   62.9877 C   0  0  0  0  0  0  0  0  0  0  0  0
   11.5764   92.5915   64.1672 C   0  0  0  0  0  0  0  0  0  0  0  0
   12.8904   92.0981   64.6361 C   0  0  0  0  0  0  0  0  0  0  0  0
   12.8600   92.0678   66.0535 O   0  0  0  0  0  0  0  0  0  0  0  0
   14.1023   92.7530   64.1393 C   0  0  0  0  0  0  0  0  0  0  0  0
   13.9653   93.7791   63.0871 C   0  0  0  0  0  0  0  0  0  0  0  0
   12.6549   94.5369   63.1103 C   0  0  0  0  0  0  0  0  0  0  0  0
   12.5559   95.1763   64.5024 C   0  0  0  0  0  0  0  0  0  0  0  0
   11.0873   97.0324   60.6776 C   0  0  0  0  0  0  0  0  0  0  0  0
   10.4289   96.4176   59.4741 C   0  0  0  0  0  0  0  0  0  0  0  0
   10.7729   97.4217   58.4336 C   0  0  0  0  0  0  0  0  0  0  0  0
   11.8686   98.0841   58.7739 C   0  0  0  0  0  0  0  0  0  0  0  0
   12.4060   99.1280   57.8962 C   0  0  0  0  0  0  0  0  0  0  0  0
   12.8579  100.3538   58.3392 C   0  0  0  0  0  0  0  0  0  0  0  0
   13.3346  101.3455   57.5085 C   0  0  0  0  0  0  0  0  0  0  0  0
   13.3730  101.1256   56.1615 C   0  0  0  0  0  0  0  0  0  0  0  0
   13.7836  101.9059   55.1306 N   0  0  0  0  0  0  0  0  0  0  0  0
   13.6008  101.1929   54.0299 C   0  0  0  0  0  0  0  0  0  0  0  0
   13.0928  100.0118   54.3837 N   0  0  0  0  0  0  0  0  0  0  0  0
   12.9411   99.9417   55.6962 N   0  0  0  0  0  0  0  0  0  0  0  0
   12.4714   98.9649   56.5114 C   0  0  0  0  0  0  0  0  0  0  0  0
  1  2  1  0
  2  3  1  0
  3  4  1  0
  4  5  1  0
  5  6  1  0
  6  7  1  0
  7  8  1  0
  8  9  1  0
  9 10  1  0
 10 11  1  0
 11 12  1  0
 11 13  1  0
 13 14  1  0
 14 15  1  0
 15 16  1  0
  6 17  1  0
 17 18  1  0
 18 19  1  0
 19 20  2  0
 20 21  1  0
 21 22  1  0
 22 23  2  0
 23 24  1  0
 24 25  2  0
 25 26  1  0
 26 27  2  0
 27 28  1  0
 28 29  1  0
 17  2  1  0
 29 21  2  0
 20  2  1  0
 28 24  1  0
 15  5  1  0
 15  9  1  0
M  END
$$$$
