
     RDKit          3D

 21 23  0  0  0  0  0  0  0  0999 V2000
   28.5783   82.9572   51.4296 C   0  0  0  0  0  0  0  0  0  0  0  0
   30.0360   82.7314   51.2642 C   0  0  0  0  0  0  0  0  0  0  0  0
   30.9279   83.2488   52.1899 C   0  0  0  0  0  0  0  0  0  0  0  0
   32.2573   83.0212   52.0049 C   0  0  0  0  0  0  0  0  0  0  0  0
   32.7370   82.2985   50.9347 C   0  0  0  0  0  0  0  0  0  0  0  0
   34.1371   82.0623   50.7455 N   0  0  0  0  0  0  0  0  0  0  0  0
   34.9328   81.5728   51.6803 N   0  0  0  0  0  0  0  0  0  0  0  0
   36.1889   81.4620   51.2143 C   0  0  0  0  0  0  0  0  0  0  0  0
   37.3408   80.9787   51.9063 N   0  0  0  0  0  0  0  0  0  0  0  0
   37.2226   80.4306   53.2415 C   0  0  0  0  0  0  0  0  0  0  0  0
   38.0872   81.2796   54.1477 C   0  0  0  0  0  0  0  0  0  0  0  0
   39.2235   81.7506   53.5443 O   0  0  0  0  0  0  0  0  0  0  0  0
   39.6543   80.9896   52.4669 C   0  0  0  0  0  0  0  0  0  0  0  0
   38.6621   81.0092   51.3238 C   0  0  0  0  0  0  0  0  0  0  0  0
   36.1389   81.9157   49.9147 C   0  0  0  0  0  0  0  0  0  0  0  0
   34.8260   82.2980   49.6204 C   0  0  0  0  0  0  0  0  0  0  0  0
   34.3898   82.8143   48.3801 N   0  0  0  0  0  0  0  0  0  0  0  0
   31.8410   81.7887   50.0203 C   0  0  0  0  0  0  0  0  0  0  0  0
   32.3115   81.0216   48.8796 C   0  0  0  0  0  0  0  0  0  0  0  0
   32.6700   80.4154   47.9608 N   0  0  0  0  0  0  0  0  0  0  0  0
   30.4933   82.0066   50.1876 C   0  0  0  0  0  0  0  0  0  0  0  0
  1  2  1  0
  2  3  2  0
  3  4  1  0
  4  5  2  0
  5  6  1  0
  6  7  1  0
  7  8  2  0
  8  9  1  0
  9 10  1  0
 10 11  1  0
 11 12  1  0
 12 13  1  0
 13 14  1  0
  8 15  1  0
 15 16  2  0
 16 17  1  0
  5 18  1  0
 18 19  1  0
 19 20  3  0
 18 21  2  0
 21  2  1  0
 16  6  1  0
 14  9  1  0
M  END
$$$$
