
     RDKit          3D

 22 23  0  0  0  0  0  0  0  0999 V2000
    8.1680   92.1027   66.4832 C   0  0  0  0  0  0  0  0  0  0  0  0
    9.5992   92.1772   66.1152 C   0  0  0  0  0  0  0  0  0  0  0  0
   10.0178   91.6670   64.7940 C   0  0  0  0  0  0  0  0  0  0  0  0
   11.4336   91.3164   64.5596 C   0  0  0  0  0  0  0  0  0  0  0  0
   11.7193   89.8574   64.4677 C   0  0  0  0  0  0  0  0  0  0  0  0
   11.0157   89.3413   63.3579 O   0  0  0  0  0  0  0  0  0  0  0  0
   11.9485   92.0301   63.3746 N   0  0  0  0  0  0  0  0  0  0  0  0
   11.1700   93.1532   62.9908 C   0  0  0  0  0  0  0  0  0  0  0  0
   12.1148   94.3205   62.8482 C   0  0  0  0  0  0  0  0  0  0  0  0
   13.1967   94.3925   63.6985 C   0  0  0  0  0  0  0  0  0  0  0  0
   14.0463   95.4568   63.5586 C   0  0  0  0  0  0  0  0  0  0  0  0
   13.7844   96.4125   62.5728 C   0  0  0  0  0  0  0  0  0  0  0  0
   12.6987   96.3272   61.7300 C   0  0  0  0  0  0  0  0  0  0  0  0
   12.4218   97.3236   60.6990 C   0  0  0  0  0  0  0  0  0  0  0  0
   13.1196   98.4762   60.5404 C   0  0  0  0  0  0  0  0  0  0  0  0
   12.8010   99.3845   59.5333 C   0  0  0  0  0  0  0  0  0  0  0  0
   11.7517   99.0945   58.6858 C   0  0  0  0  0  0  0  0  0  0  0  0
   11.3978   99.9738   57.6647 O   0  0  0  0  0  0  0  0  0  0  0  0
   10.2986   99.6521   56.8104 C   0  0  0  0  0  0  0  0  0  0  0  0
   11.0109   97.9348   58.8060 C   0  0  0  0  0  0  0  0  0  0  0  0
   11.3711   97.0727   59.8206 C   0  0  0  0  0  0  0  0  0  0  0  0
   11.8911   95.2568   61.9100 N   0  0  0  0  0  0  0  0  0  0  0  0
  1  2  1  0
  2  3  1  0
  3  4  1  0
  4  5  1  0
  5  6  1  0
  4  7  1  0
  7  8  1  0
  8  9  1  0
  9 10  2  0
 10 11  1  0
 11 12  2  0
 12 13  1  0
 13 14  1  0
 14 15  2  0
 15 16  1  0
 16 17  2  0
 17 18  1  0
 18 19  1  0
 17 20  1  0
 20 21  2  0
 13 22  2  0
 22  9  1  0
 21 14  1  0
M  END
$$$$
