
     RDKit          3D

 25 27  0  0  0  0  0  0  0  0999 V2000
   15.5241   99.7106   48.1782 C   0  0  0  0  0  0  0  0  0  0  0  0
   16.0099   99.3992   49.5166 N   0  0  0  0  0  0  0  0  0  0  0  0
   15.6595  100.1473   50.6612 C   0  0  0  0  0  0  0  0  0  0  0  0
   14.5119  100.6389   50.7471 O   0  0  0  0  0  0  0  0  0  0  0  0
   16.6103  100.3740   51.7756 C   0  0  0  0  0  0  0  0  0  0  0  0
   15.8122  100.6576   52.9774 N   0  0  0  0  0  0  0  0  0  0  0  0
   15.2551   99.7493   53.8016 C   0  0  0  0  0  0  0  0  0  0  0  0
   14.5841  100.3769   54.8173 C   0  0  0  0  0  0  0  0  0  0  0  0
   13.8560   99.8194   55.9028 N   0  0  0  0  0  0  0  0  0  0  0  0
   13.0275  100.5670   56.7741 C   0  0  0  0  0  0  0  0  0  0  0  0
   12.7709  101.7648   56.5283 O   0  0  0  0  0  0  0  0  0  0  0  0
   12.4772   99.9241   57.9611 C   0  0  0  0  0  0  0  0  0  0  0  0
   12.8266   98.7275   58.4677 N   0  0  0  0  0  0  0  0  0  0  0  0
   12.1033   98.4624   59.5725 C   0  0  0  0  0  0  0  0  0  0  0  0
   12.1952   97.2631   60.4004 C   0  0  0  0  0  0  0  0  0  0  0  0
   13.2836   96.4204   60.3378 C   0  0  0  0  0  0  0  0  0  0  0  0
   13.3702   95.2774   61.1275 C   0  0  0  0  0  0  0  0  0  0  0  0
   12.3542   94.9571   62.0035 C   0  0  0  0  0  0  0  0  0  0  0  0
   11.2668   95.7899   62.0727 C   0  0  0  0  0  0  0  0  0  0  0  0
   11.1850   96.9357   61.2779 C   0  0  0  0  0  0  0  0  0  0  0  0
   11.3215   99.5038   59.7234 O   0  0  0  0  0  0  0  0  0  0  0  0
   11.4952  100.3962   58.8074 C   0  0  0  0  0  0  0  0  0  0  0  0
   10.8191  101.7151   58.6096 C   0  0  0  0  0  0  0  0  0  0  0  0
   14.7546  101.7236   54.5792 C   0  0  0  0  0  0  0  0  0  0  0  0
   15.4956  101.8404   53.4684 N   0  0  0  0  0  0  0  0  0  0  0  0
  1  2  1  0
  2  3  1  0
  3  4  2  0
  3  5  1  0
  5  6  1  0
  6  7  1  0
  7  8  2  0
  8  9  1  0
  9 10  1  0
 10 11  2  0
 10 12  1  0
 12 13  1  0
 13 14  2  0
 14 15  1  0
 15 16  2  0
 16 17  1  0
 17 18  2  0
 18 19  1  0
 19 20  2  0
 14 21  1  0
 21 22  1  0
 22 23  1  0
  8 24  1  0
 24 25  2  0
 25  6  1  0
 22 12  2  0
 20 15  1  0
M  END
$$$$
