
     RDKit          3D

 32 36  0  0  0  0  0  0  0  0999 V2000
   13.2117   56.8289   12.9890 C   0  0  0  0  0  0  0  0  0  0  0  0
   14.5196   56.4002   12.5846 N   0  0  0  0  0  0  0  0  0  0  0  0
   15.1714   55.3933   13.3310 C   0  0  0  0  0  0  0  0  0  0  0  0
   14.5679   54.8402   14.4223 N   0  0  0  0  0  0  0  0  0  0  0  0
   15.0981   53.8805   15.1766 C   0  0  0  0  0  0  0  0  0  0  0  0
   14.4927   53.2999   16.3031 N   0  0  0  0  0  0  0  0  0  0  0  0
   14.7766   52.0564   16.8799 C   0  0  0  0  0  0  0  0  0  0  0  0
   15.9866   51.4122   16.7992 C   0  0  0  0  0  0  0  0  0  0  0  0
   16.2018   50.1640   17.4034 C   0  0  0  0  0  0  0  0  0  0  0  0
   15.2019   49.5391   18.1015 C   0  0  0  0  0  0  0  0  0  0  0  0
   15.4556   48.2788   18.6987 N   0  0  0  0  0  0  0  0  0  0  0  0
   15.0746   47.1165   18.1915 N   0  0  0  0  0  0  0  0  0  0  0  0
   15.4673   46.1127   18.9950 C   0  0  0  0  0  0  0  0  0  0  0  0
   16.1229   46.7010   20.0480 C   0  0  0  0  0  0  0  0  0  0  0  0
   16.0971   48.0290   19.8342 N   0  0  0  0  0  0  0  0  0  0  0  0
   13.9956   50.1855   18.1797 C   0  0  0  0  0  0  0  0  0  0  0  0
   12.6978   49.3994   19.0722 Cl  0  0  0  0  0  0  0  0  0  0  0  0
   13.7625   51.4085   17.5956 C   0  0  0  0  0  0  0  0  0  0  0  0
   16.3264   53.4540   14.7941 N   0  0  0  0  0  0  0  0  0  0  0  0
   17.0013   53.9279   13.7449 C   0  0  0  0  0  0  0  0  0  0  0  0
   16.4268   54.9331   12.9704 C   0  0  0  0  0  0  0  0  0  0  0  0
   17.3812   55.2741   11.9043 C   0  0  0  0  0  0  0  0  0  0  0  0
   16.9139   54.6374   10.6211 C   0  0  0  0  0  0  0  0  0  0  0  0
   17.5549   56.7742   11.7022 C   0  0  0  0  0  0  0  0  0  0  0  0
   18.7014   54.6359   12.2939 C   0  0  0  0  0  0  0  0  0  0  0  0
   18.2877   53.5801   13.2102 N   0  0  0  0  0  0  0  0  0  0  0  0
   19.0284   52.4204   13.5170 C   0  0  0  0  0  0  0  0  0  0  0  0
   19.4382   51.5809   12.5209 C   0  0  0  0  0  0  0  0  0  0  0  0
   20.1673   50.4376   12.8582 C   0  0  0  0  0  0  0  0  0  0  0  0
   20.4707   50.1557   14.1656 C   0  0  0  0  0  0  0  0  0  0  0  0
   20.0486   51.0176   15.1729 C   0  0  0  0  0  0  0  0  0  0  0  0
   19.3264   52.1487   14.8309 C   0  0  0  0  0  0  0  0  0  0  0  0
  1  2  1  0
  2  3  1  0
  3  4  2  0
  4  5  1  0
  5  6  1  0
  6  7  1  0
  7  8  2  0
  8  9  1  0
  9 10  2  0
 10 11  1  0
 11 12  1  0
 12 13  2  0
 13 14  1  0
 14 15  2  0
 10 16  1  0
 16 17  1  0
 16 18  2  0
  5 19  2  0
 19 20  1  0
 20 21  2  0
 21 22  1  0
 22 23  1  0
 22 24  1  0
 22 25  1  0
 25 26  1  0
 26 27  1  0
 27 28  2  0
 28 29  1  0
 29 30  2  0
 30 31  1  0
 31 32  2  0
 21  3  1  0
 32 27  1  0
 18  7  1  0
 26 20  1  0
 15 11  1  0
M  END
$$$$
