
     RDKit          3D

 24 25  0  0  0  0  0  0  0  0999 V2000
  -11.0216   61.0900   32.2846 N   0  0  0  0  0  0  0  0  0  0  0  0
   -9.8626   61.2456   31.7842 C   0  0  0  0  0  0  0  0  0  0  0  0
   -9.4006   62.5332   31.4406 N   0  0  0  0  0  0  0  0  0  0  0  0
   -9.0046   60.0934   31.5630 C   0  0  0  0  0  0  0  0  0  0  0  0
   -9.5640   58.8146   31.6279 C   0  0  0  0  0  0  0  0  0  0  0  0
   -8.7497   57.7306   31.4180 C   0  0  0  0  0  0  0  0  0  0  0  0
   -7.3851   57.8342   31.1413 C   0  0  0  0  0  0  0  0  0  0  0  0
   -6.8323   59.0843   31.0772 C   0  0  0  0  0  0  0  0  0  0  0  0
   -5.5440   59.3077   30.8239 O   0  0  0  0  0  0  0  0  0  0  0  0
   -4.7404   60.3665   30.5101 C   0  0  0  0  0  0  0  0  0  0  0  0
   -3.7228   60.6350   31.5594 C   0  0  0  0  0  0  0  0  0  0  0  0
   -2.7109   61.6884   31.1480 C   0  0  0  0  0  0  0  0  0  0  0  0
   -3.3616   62.9504   30.6895 C   0  0  0  0  0  0  0  0  0  0  0  0
   -3.2396   64.0435   31.5189 O   0  0  0  0  0  0  0  0  0  0  0  0
   -3.6653   65.3207   31.4332 C   0  0  0  0  0  0  0  0  0  0  0  0
   -4.7981   65.7264   30.7877 C   0  0  0  0  0  0  0  0  0  0  0  0
   -5.1404   67.0861   30.7628 C   0  0  0  0  0  0  0  0  0  0  0  0
   -4.3389   68.0172   31.3864 C   0  0  0  0  0  0  0  0  0  0  0  0
   -3.1833   67.6324   32.0481 C   0  0  0  0  0  0  0  0  0  0  0  0
   -2.8791   66.2956   32.0529 C   0  0  0  0  0  0  0  0  0  0  0  0
   -1.6756   65.8721   32.7384 C   0  0  0  0  0  0  0  0  0  0  0  0
   -0.6946   66.6952   32.8406 N   0  0  0  0  0  0  0  0  0  0  0  0
   -1.5811   64.5670   33.2891 N   0  0  0  0  0  0  0  0  0  0  0  0
   -7.6649   60.1950   31.2916 C   0  0  0  0  0  0  0  0  0  0  0  0
  1  2  2  0
  2  3  1  0
  2  4  1  0
  4  5  2  0
  5  6  1  0
  6  7  2  0
  7  8  1  0
  8  9  1  0
  9 10  1  0
 10 11  1  0
 11 12  1  0
 12 13  1  0
 13 14  1  0
 14 15  1  0
 15 16  2  0
 16 17  1  0
 17 18  2  0
 18 19  1  0
 19 20  2  0
 20 21  1  0
 21 22  2  0
 21 23  1  0
  8 24  2  0
 24  4  1  0
 20 15  1  0
M  END
$$$$
