
     RDKit          3D

 34 37  0  0  0  0  0  0  0  0999 V2000
   45.1567   85.9256   48.6150 C   0  0  0  0  0  0  0  0  0  0  0  0
   43.9582   86.6579   48.5780 O   0  0  0  0  0  0  0  0  0  0  0  0
   42.7327   86.0307   48.5758 C   0  0  0  0  0  0  0  0  0  0  0  0
   41.7414   86.3548   47.6700 C   0  0  0  0  0  0  0  0  0  0  0  0
   40.5327   85.7188   47.6864 C   0  0  0  0  0  0  0  0  0  0  0  0
   40.2676   84.7283   48.6153 C   0  0  0  0  0  0  0  0  0  0  0  0
   39.1105   84.0872   48.6649 N   0  0  0  0  0  0  0  0  0  0  0  0
   38.8842   83.1196   49.5893 C   0  0  0  0  0  0  0  0  0  0  0  0
   37.6262   82.5274   49.5297 O   0  0  0  0  0  0  0  0  0  0  0  0
   36.9564   82.2139   48.3503 C   0  0  0  0  0  0  0  0  0  0  0  0
   39.8316   82.7630   50.5062 C   0  0  0  0  0  0  0  0  0  0  0  0
   39.6514   81.8191   51.4304 O   0  0  0  0  0  0  0  0  0  0  0  0
   39.3202   81.8000   52.7630 C   0  0  2  0  0  0  0  0  0  0  0  0
   40.1769   80.8496   53.3798 O   0  0  0  0  0  0  0  0  0  0  0  0
   39.6700   79.6647   52.7835 C   0  0  0  0  0  0  0  0  0  0  0  0
   38.2288   79.7635   53.3095 C   0  0  2  0  0  0  0  0  0  0  0  0
   38.3450   79.6393   54.8135 C   0  0  0  0  0  0  0  0  0  0  0  0
   37.4271   78.8211   52.7381 O   0  0  0  0  0  0  0  0  0  0  0  0
   36.7847   77.9640   53.5820 C   0  0  0  0  0  0  0  0  0  0  0  0
   37.9135   81.1893   52.9873 C   0  0  2  0  0  0  0  0  0  0  0  0
   37.2571   81.3860   51.7510 O   0  0  0  0  0  0  0  0  0  0  0  0
   36.1704   82.2618   51.6316 C   0  0  0  0  0  0  0  0  0  0  0  0
   36.1185   83.1602   52.5066 O   0  0  0  0  0  0  0  0  0  0  0  0
   35.2046   82.1367   50.5959 N   0  0  0  0  0  0  0  0  0  0  0  0
   34.1066   81.2331   50.6670 C   0  0  0  0  0  0  0  0  0  0  0  0
   32.7752   81.8548   50.7761 C   0  0  0  0  0  0  0  0  0  0  0  0
   31.7392   81.4577   49.9640 C   0  0  0  0  0  0  0  0  0  0  0  0
   30.4591   82.0242   50.0594 C   0  0  0  0  0  0  0  0  0  0  0  0
   30.2198   83.0112   50.9926 C   0  0  0  0  0  0  0  0  0  0  0  0
   31.2567   83.4107   51.8068 C   0  0  0  0  0  0  0  0  0  0  0  0
   32.5235   82.8582   51.7208 C   0  0  0  0  0  0  0  0  0  0  0  0
   41.0536   83.4321   50.4624 C   0  0  0  0  0  0  0  0  0  0  0  0
   41.2598   84.4109   49.5145 C   0  0  0  0  0  0  0  0  0  0  0  0
   42.4721   85.0536   49.4928 C   0  0  0  0  0  0  0  0  0  0  0  0
  1  2  1  0
  2  3  1  0
  3  4  2  0
  4  5  1  0
  5  6  2  0
  6  7  1  0
  7  8  2  0
  8  9  1  0
  9 10  1  0
  8 11  1  0
 11 12  1  0
 13 12  1  6
 13 14  1  0
 14 15  1  0
 15 16  1  0
 16 17  1  1
 16 18  1  0
 18 19  1  0
 16 20  1  0
 20 21  1  6
 21 22  1  0
 22 23  2  0
 22 24  1  0
 24 25  1  0
 25 26  1  0
 26 27  2  0
 27 28  1  0
 28 29  2  0
 29 30  1  0
 30 31  2  0
 11 32  2  0
 32 33  1  0
 33 34  2  0
 34  3  1  0
 33  6  1  0
 20 13  1  0
 31 26  1  0
M  END
$$$$
