
     RDKit          3D

 32 35  0  0  0  0  0  0  0  0999 V2000
   11.2783   60.5774   11.5898 C   0  0  0  0  0  0  0  0  0  0  0  0
   11.9877   59.3020   11.6633 N   0  0  0  0  0  0  0  0  0  0  0  0
   12.0107   58.3584   10.7561 N   0  0  0  0  0  0  0  0  0  0  0  0
   12.7603   57.3132   11.1390 C   0  0  0  0  0  0  0  0  0  0  0  0
   13.2643   57.6059   12.3999 C   0  0  0  0  0  0  0  0  0  0  0  0
   14.1105   56.7529   13.1768 N   0  0  0  0  0  0  0  0  0  0  0  0
   15.3395   56.2666   12.6650 C   0  0  0  0  0  0  0  0  0  0  0  0
   15.9222   56.9858   11.8184 O   0  0  0  0  0  0  0  0  0  0  0  0
   15.8944   54.9591   13.1257 C   0  0  0  0  0  0  0  0  0  0  0  0
   17.0945   54.5150   12.7076 C   0  0  0  0  0  0  0  0  0  0  0  0
   17.2174   52.9028   13.5939 S   0  0  0  0  0  0  0  0  0  0  0  0
   15.5891   53.1324   14.3822 C   0  0  0  0  0  0  0  0  0  0  0  0
   15.0850   52.0571   15.3062 C   0  0  0  0  0  0  0  0  0  0  0  0
   15.5204   51.9357   16.5955 C   0  0  0  0  0  0  0  0  0  0  0  0
   16.4312   52.7968   17.0753 F   0  0  0  0  0  0  0  0  0  0  0  0
   15.0129   50.9175   17.3984 C   0  0  0  0  0  0  0  0  0  0  0  0
   14.0785   50.0338   16.9064 C   0  0  0  0  0  0  0  0  0  0  0  0
   13.6555   50.1709   15.6158 C   0  0  0  0  0  0  0  0  0  0  0  0
   12.7368   49.2997   15.1366 F   0  0  0  0  0  0  0  0  0  0  0  0
   14.1719   51.2012   14.8101 C   0  0  0  0  0  0  0  0  0  0  0  0
   13.7336   51.3066   13.5454 F   0  0  0  0  0  0  0  0  0  0  0  0
   15.2435   54.1783   13.9582 N   0  0  0  0  0  0  0  0  0  0  0  0
   12.7565   58.8561   12.6869 C   0  0  0  0  0  0  0  0  0  0  0  0
   13.0137   59.6150   13.9333 C   0  0  2  0  0  0  0  0  0  0  0  0
   14.1286   60.5964   13.8475 C   0  0  0  0  0  0  0  0  0  0  0  0
   15.5051   60.0397   13.8195 C   0  0  0  0  0  0  0  0  0  0  0  0
   16.1185   59.7976   15.1784 C   0  0  1  0  0  0  0  0  0  0  0  0
   16.3787   60.9879   15.9208 N   0  0  0  0  0  0  0  0  0  0  0  0
   15.3246   58.7649   15.8998 C   0  0  1  0  0  0  0  0  0  0  0  0
   15.8712   58.6330   17.1788 F   0  0  0  0  0  0  0  0  0  0  0  0
   13.8613   59.1106   16.0358 C   0  0  0  0  0  0  0  0  0  0  0  0
   13.1038   58.7273   14.9694 O   0  0  0  0  0  0  0  0  0  0  0  0
  1  2  1  0
  2  3  1  0
  3  4  2  0
  4  5  1  0
  5  6  1  0
  6  7  1  0
  7  8  2  0
  7  9  1  0
  9 10  2  0
 10 11  1  0
 11 12  1  0
 12 13  1  0
 13 14  2  0
 14 15  1  0
 14 16  1  0
 16 17  2  0
 17 18  1  0
 18 19  1  0
 18 20  2  0
 20 21  1  0
 12 22  2  0
  5 23  2  0
 24 23  1  6
 24 25  1  0
 25 26  1  0
 26 27  1  0
 27 28  1  1
 27 29  1  0
 29 30  1  1
 29 31  1  0
 31 32  1  0
 23  2  1  0
 32 24  1  0
 22  9  1  0
 20 13  1  0
M  END
$$$$
