
     RDKit          3D

 32 35  0  0  0  0  0  0  0  0999 V2000
    9.8093   62.4643   10.1630 N   0  0  0  0  0  0  0  0  0  0  0  0
   10.8091   62.0497   10.6790 C   0  0  0  0  0  0  0  0  0  0  0  0
   12.0373   61.5645   11.2947 C   0  0  0  0  0  0  0  0  0  0  0  0
   12.8074   62.3587   12.0449 C   0  0  0  0  0  0  0  0  0  0  0  0
   13.9513   61.9203   12.6901 C   0  0  0  0  0  0  0  0  0  0  0  0
   14.2712   60.6493   12.5378 N   0  0  0  0  0  0  0  0  0  0  0  0
   13.5222   59.8133   11.7866 C   0  0  0  0  0  0  0  0  0  0  0  0
   13.8790   58.4081   11.7580 C   0  0  0  0  0  0  0  0  0  0  0  0
   12.9986   57.5295   11.5581 O   0  0  0  0  0  0  0  0  0  0  0  0
   15.2430   58.0377   11.9736 N   0  0  0  0  0  0  0  0  0  0  0  0
   15.4366   56.7882   12.6518 C   0  0  0  0  0  0  0  0  0  0  0  0
   15.3763   55.5827   12.0456 C   0  0  0  0  0  0  0  0  0  0  0  0
   15.5176   54.4391   12.7924 C   0  0  0  0  0  0  0  0  0  0  0  0
   15.7155   54.4196   14.1239 C   0  0  0  0  0  0  0  0  0  0  0  0
   15.8687   53.2201   14.9177 C   0  0  0  0  0  0  0  0  0  0  0  0
   16.8952   53.0400   15.8801 C   0  0  0  0  0  0  0  0  0  0  0  0
   16.9402   51.8492   16.6006 C   0  0  0  0  0  0  0  0  0  0  0  0
   16.0584   50.8141   16.4547 C   0  0  0  0  0  0  0  0  0  0  0  0
   16.0758   49.5758   17.2571 C   0  0  0  0  0  0  0  0  0  0  0  0
   14.7332   49.0275   17.4094 N   0  0  0  0  0  0  0  0  0  0  0  0
   14.8524   47.7503   18.0634 C   0  0  0  0  0  0  0  0  0  0  0  0
   15.0932   47.8178   19.5314 C   0  0  0  0  0  0  0  0  0  0  0  0
   14.0870   48.7259   20.2017 C   0  0  0  0  0  0  0  0  0  0  0  0
   12.8286   48.2302   20.0565 F   0  0  0  0  0  0  0  0  0  0  0  0
   14.3878   48.8638   21.5361 F   0  0  0  0  0  0  0  0  0  0  0  0
   14.2233   50.0910   19.5555 C   0  0  0  0  0  0  0  0  0  0  0  0
   13.8468   49.9323   18.0946 C   0  0  0  0  0  0  0  0  0  0  0  0
   15.0587   51.0083   15.5001 C   0  0  0  0  0  0  0  0  0  0  0  0
   15.0053   52.1742   14.7867 C   0  0  0  0  0  0  0  0  0  0  0  0
   15.7832   55.7152   14.7488 C   0  0  0  0  0  0  0  0  0  0  0  0
   15.6453   56.8119   14.0086 N   0  0  0  0  0  0  0  0  0  0  0  0
   12.3808   60.2106   11.1271 C   0  0  0  0  0  0  0  0  0  0  0  0
  1  2  3  0
  2  3  1  0
  3  4  2  0
  4  5  1  0
  5  6  2  0
  6  7  1  0
  7  8  1  0
  8  9  2  0
  8 10  1  0
 10 11  1  0
 11 12  2  0
 12 13  1  0
 13 14  2  0
 14 15  1  0
 15 16  2  0
 16 17  1  0
 17 18  2  0
 18 19  1  0
 19 20  1  0
 20 21  1  0
 21 22  1  0
 22 23  1  0
 23 24  1  0
 23 25  1  0
 23 26  1  0
 26 27  1  0
 18 28  1  0
 28 29  2  0
 14 30  1  0
 30 31  2  0
  7 32  2  0
 32  3  1  0
 31 11  1  0
 29 15  1  0
 27 20  1  0
M  END
$$$$
