
     RDKit          3D

 18 20  0  0  0  0  0  0  0  0999 V2000
   38.2965   82.2303   50.3926 C   0  0  0  0  0  0  0  0  0  0  0  0
   36.9682   82.6628   50.8578 C   0  0  0  0  0  0  0  0  0  0  0  0
   36.8958   83.6626   51.6003 O   0  0  0  0  0  0  0  0  0  0  0  0
   35.7728   81.9790   50.4881 N   0  0  0  0  0  0  0  0  0  0  0  0
   35.7256   81.0586   49.3697 C   0  0  0  0  0  0  0  0  0  0  0  0
   34.3019   80.5046   49.3049 C   0  0  0  0  0  0  0  0  0  0  0  0
   33.3976   81.6655   49.0647 C   0  0  1  0  0  0  0  0  0  0  0  0
   32.0192   81.3202   48.8803 N   0  0  0  0  0  0  0  0  0  0  0  0
   31.3315   81.5787   50.1071 C   0  0  0  0  0  0  0  0  0  0  0  0
   30.0448   81.2053   50.5253 C   0  0  0  0  0  0  0  0  0  0  0  0
   29.2432   80.4742   49.6937 F   0  0  0  0  0  0  0  0  0  0  0  0
   29.5638   81.5591   51.7623 C   0  0  0  0  0  0  0  0  0  0  0  0
   30.3865   82.2936   52.5809 C   0  0  0  0  0  0  0  0  0  0  0  0
   29.9403   82.6601   53.8123 F   0  0  0  0  0  0  0  0  0  0  0  0
   31.6483   82.6627   52.1772 C   0  0  0  0  0  0  0  0  0  0  0  0
   32.1585   82.3124   50.9199 C   0  0  0  0  0  0  0  0  0  0  0  0
   33.4553   82.5792   50.2586 C   0  0  1  0  0  0  0  0  0  0  0  0
   34.5490   82.1841   51.2283 C   0  0  0  0  0  0  0  0  0  0  0  0
  1  2  1  0
  2  3  2  0
  2  4  1  0
  4  5  1  0
  5  6  1  0
  7  6  1  1
  7  8  1  0
  8  9  1  0
  9 10  2  0
 10 11  1  0
 10 12  1  0
 12 13  2  0
 13 14  1  0
 13 15  1  0
 15 16  2  0
 16 17  1  0
 17 18  1  1
 18  4  1  0
 17  7  1  0
 16  9  1  0
M  END
$$$$
