
     RDKit          3D

 32 36  0  0  0  0  0  0  0  0999 V2000
   -3.8037   58.0000   30.5048 C   0  0  0  0  0  0  0  0  0  0  0  0
   -3.8818   59.4644   30.8433 C   0  0  0  0  0  0  0  0  0  0  0  0
   -2.7379   60.2403   30.6973 C   0  0  0  0  0  0  0  0  0  0  0  0
   -1.5847   59.6423   30.2555 F   0  0  0  0  0  0  0  0  0  0  0  0
   -2.7342   61.5817   30.9923 C   0  0  0  0  0  0  0  0  0  0  0  0
   -3.9244   62.1494   31.4472 C   0  0  0  0  0  0  0  0  0  0  0  0
   -5.0547   61.3519   31.5861 C   0  0  0  0  0  0  0  0  0  0  0  0
   -5.0667   60.0048   31.2916 C   0  0  0  0  0  0  0  0  0  0  0  0
   -6.2548   59.1798   31.4632 C   0  0  0  0  0  0  0  0  0  0  0  0
   -7.4853   59.7095   31.1909 N   0  0  0  0  0  0  0  0  0  0  0  0
   -8.5888   58.9905   31.3534 C   0  0  0  0  0  0  0  0  0  0  0  0
   -9.8904   59.4319   31.0745 N   0  0  0  0  0  0  0  0  0  0  0  0
  -10.2663   60.6914   30.5586 C   0  0  0  0  0  0  0  0  0  0  0  0
  -11.1050   60.8396   29.4865 C   0  0  0  0  0  0  0  0  0  0  0  0
  -11.5053   62.0879   29.0284 C   0  0  0  0  0  0  0  0  0  0  0  0
  -11.0451   63.2177   29.6766 C   0  0  0  0  0  0  0  0  0  0  0  0
  -10.2140   63.1251   30.7415 C   0  0  0  0  0  0  0  0  0  0  0  0
   -9.8202   61.8563   31.1853 C   0  0  0  0  0  0  0  0  0  0  0  0
   -9.5462   64.0860   31.6736 C   0  0  0  0  0  0  0  0  0  0  0  0
   -9.2834   65.3374   30.9968 N   0  0  0  0  0  0  0  0  0  0  0  0
  -10.4318   66.2305   31.1309 C   0  0  0  0  0  0  0  0  0  0  0  0
  -10.7191   66.7172   29.7276 C   0  0  0  0  0  0  0  0  0  0  0  0
  -11.5780   67.9784   29.7870 C   0  0  0  0  0  0  0  0  0  0  0  0
  -11.4285   65.7551   28.9353 N   0  0  0  0  0  0  0  0  0  0  0  0
  -11.6455   64.3477   28.9694 C   0  0  0  0  0  0  0  0  0  0  0  0
  -12.5917   63.9917   28.1963 O   0  0  0  0  0  0  0  0  0  0  0  0
   -8.5035   57.6665   31.8091 C   0  0  0  0  0  0  0  0  0  0  0  0
   -9.4569   56.6926   32.0730 C   0  0  0  0  0  0  0  0  0  0  0  0
   -8.7952   55.5585   32.5074 C   0  0  0  0  0  0  0  0  0  0  0  0
   -7.4606   55.8726   32.4968 C   0  0  0  0  0  0  0  0  0  0  0  0
   -7.2957   57.1491   32.0739 N   0  0  0  0  0  0  0  0  0  0  0  0
   -6.2200   57.9205   31.8934 N   0  0  0  0  0  0  0  0  0  0  0  0
  1  2  1  0
  2  3  2  0
  3  4  1  0
  3  5  1  0
  5  6  2  0
  6  7  1  0
  7  8  2  0
  8  9  1  0
  9 10  1  0
 10 11  2  0
 11 12  1  0
 12 13  1  0
 13 14  2  0
 14 15  1  0
 15 16  2  0
 16 17  1  0
 17 18  2  0
 17 19  1  0
 19 20  1  0
 20 21  1  0
 21 22  1  0
 22 23  1  0
 22 24  1  0
 24 25  1  0
 25 26  2  0
 11 27  1  0
 27 28  2  0
 28 29  1  0
 29 30  2  0
 30 31  1  0
 31 32  1  0
  8  2  1  0
 32  9  2  0
 18 13  1  0
 31 27  1  0
 25 16  1  0
M  END
$$$$
