
     RDKit          3D

 34 37  0  0  0  0  0  0  0  0999 V2000
  -15.0166   55.5277   29.6047 C   0  0  0  0  0  0  0  0  0  0  0  0
  -13.5253   55.6371   29.6545 C   0  0  0  0  0  0  0  0  0  0  0  0
  -13.0206   56.9563   30.1363 C   0  0  0  0  0  0  0  0  0  0  0  0
  -12.2009   57.7222   29.1514 C   0  0  0  0  0  0  0  0  0  0  0  0
  -10.8519   58.0831   29.6422 C   0  0  0  0  0  0  0  0  0  0  0  0
   -9.7551   57.2819   29.4166 C   0  0  0  0  0  0  0  0  0  0  0  0
   -8.4942   57.6009   29.8662 C   0  0  0  0  0  0  0  0  0  0  0  0
   -8.3219   58.7601   30.5652 C   0  0  0  0  0  0  0  0  0  0  0  0
   -7.0611   59.1420   31.0507 N   0  0  0  0  0  0  0  0  0  0  0  0
   -5.8765   58.4810   30.5498 C   0  0  0  0  0  0  0  0  0  0  0  0
   -4.6229   58.9158   31.2336 C   0  0  0  0  0  0  0  0  0  0  0  0
   -4.6030   60.4121   31.2160 C   0  0  0  0  0  0  0  0  0  0  0  0
   -3.4964   61.1055   30.8115 C   0  0  0  0  0  0  0  0  0  0  0  0
   -2.2919   60.3955   30.3716 C   0  0  0  0  0  0  0  0  0  0  0  0
   -1.4016   61.2941   29.7705 F   0  0  0  0  0  0  0  0  0  0  0  0
   -2.5737   59.4387   29.3919 F   0  0  0  0  0  0  0  0  0  0  0  0
   -1.6103   59.7869   31.4059 F   0  0  0  0  0  0  0  0  0  0  0  0
   -3.5488   62.5036   30.8263 C   0  0  0  0  0  0  0  0  0  0  0  0
   -4.6921   63.1507   31.2400 C   0  0  0  0  0  0  0  0  0  0  0  0
   -5.8071   62.3988   31.6477 C   0  0  0  0  0  0  0  0  0  0  0  0
   -6.9961   63.0238   32.0812 N   0  0  0  0  0  0  0  0  0  0  0  0
   -7.0676   63.9045   33.2242 C   0  0  0  0  0  0  0  0  0  0  0  0
   -7.3934   65.2908   32.6510 C   0  0  0  0  0  0  0  0  0  0  0  0
   -8.4490   65.1503   31.6673 N   0  0  0  0  0  0  0  0  0  0  0  0
   -8.7016   66.2355   30.7727 C   0  0  0  0  0  0  0  0  0  0  0  0
   -9.2579   66.0687   29.6611 O   0  0  0  0  0  0  0  0  0  0  0  0
   -8.2898   67.5990   31.1785 C   0  0  0  0  0  0  0  0  0  0  0  0
   -8.7110   68.5382   30.2410 O   0  0  0  0  0  0  0  0  0  0  0  0
   -9.2244   63.9257   31.6060 C   0  0  0  0  0  0  0  0  0  0  0  0
   -8.2291   62.7902   31.3575 C   0  0  0  0  0  0  0  0  0  0  0  0
   -5.7650   61.0228   31.6364 C   0  0  0  0  0  0  0  0  0  0  0  0
   -6.9212   60.1985   32.0558 C   0  0  0  0  0  0  0  0  0  0  0  0
   -9.3959   59.5719   30.8016 N   0  0  0  0  0  0  0  0  0  0  0  0
  -10.6246   59.2536   30.3593 C   0  0  0  0  0  0  0  0  0  0  0  0
  1  2  1  0
  2  3  1  0
  3  4  1  0
  4  5  1  0
  5  6  2  0
  6  7  1  0
  7  8  2  0
  8  9  1  0
  9 10  1  0
 10 11  1  0
 11 12  1  0
 12 13  2  0
 13 14  1  0
 14 15  1  0
 14 16  1  0
 14 17  1  0
 13 18  1  0
 18 19  2  0
 19 20  1  0
 20 21  1  0
 21 22  1  0
 22 23  1  0
 23 24  1  0
 24 25  1  0
 25 26  2  0
 25 27  1  0
 27 28  1  0
 24 29  1  0
 29 30  1  0
 20 31  2  0
 31 32  1  0
  8 33  1  0
 33 34  2  0
 34  5  1  0
 32  9  1  0
 31 12  1  0
 30 21  1  0
M  END
$$$$
