
     RDKit          3D

 22 24  0  0  0  0  0  0  0  0999 V2000
   15.4130   91.4690   63.8776 C   0  0  0  0  0  0  0  0  0  0  0  0
   14.1564   92.0184   64.1658 O   0  0  0  0  0  0  0  0  0  0  0  0
   13.5946   93.0599   63.4372 C   0  0  0  0  0  0  0  0  0  0  0  0
   12.3246   93.5147   63.7208 C   0  0  0  0  0  0  0  0  0  0  0  0
   11.7989   94.5533   62.9739 C   0  0  0  0  0  0  0  0  0  0  0  0
   12.5234   95.1404   61.9517 C   0  0  0  0  0  0  0  0  0  0  0  0
   11.9539   96.2491   61.1593 C   0  0  0  0  0  0  0  0  0  0  0  0
   11.2416   97.1808   61.6396 N   0  0  0  0  0  0  0  0  0  0  0  0
   10.8522   98.0768   60.6536 O   0  0  0  0  0  0  0  0  0  0  0  0
   11.8575   97.9967   59.6707 C   0  0  0  0  0  0  0  0  0  0  0  0
   11.5226   98.4806   58.3510 C   0  0  0  0  0  0  0  0  0  0  0  0
   10.2963   98.4125   57.9928 O   0  0  0  0  0  0  0  0  0  0  0  0
   12.4868   99.0098   57.4757 N   0  0  0  0  0  0  0  0  0  0  0  0
   13.8300   99.3210   57.8396 C   0  0  0  0  0  0  0  0  0  0  0  0
   14.6621   99.8694   56.7190 C   0  0  0  0  0  0  0  0  0  0  0  0
   13.9629  100.7978   55.7972 C   0  0  0  0  0  0  0  0  0  0  0  0
   14.3348  100.4824   54.3487 C   0  0  0  0  0  0  0  0  0  0  0  0
   12.4595  100.7432   55.8764 C   0  0  0  0  0  0  0  0  0  0  0  0
   12.0941   99.2665   56.0774 C   0  0  0  0  0  0  0  0  0  0  0  0
   12.0971   96.4769   59.7013 C   0  0  0  0  0  0  0  0  0  0  0  0
   13.7822   94.6506   61.7103 C   0  0  0  0  0  0  0  0  0  0  0  0
   14.3526   93.6149   62.4280 C   0  0  0  0  0  0  0  0  0  0  0  0
  1  2  1  0
  2  3  1  0
  3  4  2  0
  4  5  1  0
  5  6  2  0
  6  7  1  0
  7  8  2  0
  8  9  1  0
  9 10  1  0
 10 11  1  0
 11 12  2  0
 11 13  1  0
 13 14  1  0
 14 15  1  0
 15 16  1  0
 16 17  1  0
 16 18  1  0
 18 19  1  0
 10 20  1  0
  6 21  1  0
 21 22  2  0
 22  3  1  0
 20  7  1  0
 19 13  1  0
M  END
$$$$
