
     RDKit          3D

 20 23  0  0  0  0  0  0  0  0999 V2000
   18.6650   53.3870   12.6532 O   0  0  0  0  0  0  0  0  0  0  0  0
   17.9197   54.2374   12.1037 C   0  0  0  0  0  0  0  0  0  0  0  0
   18.0849   54.9915   11.0561 O   0  0  0  0  0  0  0  0  0  0  0  0
   17.0483   55.7279   10.8458 N   0  0  0  0  0  0  0  0  0  0  0  0
   16.1060   55.4725   11.8027 C   0  0  0  0  0  0  0  0  0  0  0  0
   14.7863   56.1459   11.8900 C   0  0  0  0  0  0  0  0  0  0  0  0
   14.8335   57.8284   12.4961 S   0  0  0  0  0  0  0  0  0  0  0  0
   13.3592   58.7468   12.0804 C   0  0  0  0  0  0  0  0  0  0  0  0
   12.2959   58.5565   11.4840 N   0  0  0  0  0  0  0  0  0  0  0  0
   11.3965   59.4684   11.3578 N   0  0  0  0  0  0  0  0  0  0  0  0
   11.4372   60.5711   11.7670 C   0  0  0  0  0  0  0  0  0  0  0  0
   10.7147   61.8083   11.8406 N   0  0  0  0  0  0  0  0  0  0  0  0
   11.4156   63.0278   12.0964 C   0  0  0  0  0  0  0  0  0  0  0  0
   10.6854   64.0978   12.8841 C   0  0  0  0  0  0  0  0  0  0  0  0
   11.0314   64.3224   11.4456 C   0  0  0  0  0  0  0  0  0  0  0  0
   13.1356   60.5405   12.6018 S   0  0  0  0  0  0  0  0  0  0  0  0
   16.6429   54.5159   12.6240 C   0  0  0  0  0  0  0  0  0  0  0  0
   16.0275   53.9524   13.8258 C   0  0  0  0  0  0  0  0  0  0  0  0
   16.4922   54.1299   15.1977 C   0  0  0  0  0  0  0  0  0  0  0  0
   16.9616   52.9013   14.4939 C   0  0  0  0  0  0  0  0  0  0  0  0
  1  2  2  0
  2  3  1  0
  3  4  1  0
  4  5  1  0
  5  6  1  0
  6  7  1  0
  7  8  1  0
  8  9  2  0
  9 10  1  0
 10 11  2  0
 11 12  1  0
 12 13  1  0
 13 14  1  0
 14 15  1  0
 11 16  1  0
  5 17  2  0
 17 18  1  0
 18 19  1  0
 19 20  1  0
 17  2  1  0
 20 18  1  0
 16  8  1  0
 15 13  1  0
M  END
$$$$
