
     RDKit          3D

 30 32  0  0  0  0  0  0  0  0999 V2000
   15.7297  101.8779   55.2923 C   0  0  0  0  0  0  0  0  0  0  0  0
   14.9426  100.8902   54.4464 C   0  0  0  0  0  0  0  0  0  0  0  0
   15.0307  100.8401   53.1241 N   0  0  0  0  0  0  0  0  0  0  0  0
   14.5059  100.1683   52.3666 C   0  0  0  0  0  0  0  0  0  0  0  0
   13.4477   99.1157   53.5273 S   0  0  0  0  0  0  0  0  0  0  0  0
   14.0834   99.9909   54.9959 C   0  0  0  0  0  0  0  0  0  0  0  0
   13.6395   99.6562   56.3369 C   0  0  0  0  0  0  0  0  0  0  0  0
   14.0804  100.2313   57.4918 C   0  0  0  0  0  0  0  0  0  0  0  0
   13.5918   99.8596   58.7525 C   0  0  0  0  0  0  0  0  0  0  0  0
   12.6315   98.8841   58.8937 C   0  0  0  0  0  0  0  0  0  0  0  0
   12.1334   98.4930   60.2227 C   0  0  0  0  0  0  0  0  0  0  0  0
   11.2668   97.3354   60.2158 N   0  0  0  0  0  0  0  0  0  0  0  0
   11.1463   96.4766   61.3125 C   0  0  0  0  0  0  0  0  0  0  0  0
   10.1735   96.5261   62.0878 O   0  0  0  0  0  0  0  0  0  0  0  0
   12.1965   95.4392   61.6145 C   0  0  2  0  0  0  0  0  0  0  0  0
   11.4614   94.1313   61.7886 C   0  0  0  0  0  0  0  0  0  0  0  0
   10.6137   94.1314   63.0316 C   0  0  1  0  0  0  0  0  0  0  0  0
    9.3786   94.6907   62.7205 O   0  0  0  0  0  0  0  0  0  0  0  0
   10.4671   92.7197   63.5595 C   0  0  0  0  0  0  0  0  0  0  0  0
   10.9553   92.5895   64.9641 C   0  0  0  0  0  0  0  0  0  0  0  0
   11.9282   91.4816   65.1883 C   0  0  0  0  0  0  0  0  0  0  0  0
   13.0896   91.4861   64.2532 C   0  0  0  0  0  0  0  0  0  0  0  0
   13.8600   92.7656   64.2232 C   0  0  0  0  0  0  0  0  0  0  0  0
   14.7281   92.7882   62.9838 C   0  0  0  0  0  0  0  0  0  0  0  0
   14.8404   94.1368   62.3696 C   0  0  0  0  0  0  0  0  0  0  0  0
   14.1657   95.2009   63.1628 C   0  0  0  0  0  0  0  0  0  0  0  0
   14.7440   95.5830   64.2411 N   0  0  0  0  0  0  0  0  0  0  0  0
   12.9383   95.8086   62.8019 N   0  0  0  0  0  0  0  0  0  0  0  0
   12.1827   98.2994   57.7340 C   0  0  0  0  0  0  0  0  0  0  0  0
   12.6595   98.6620   56.4978 C   0  0  0  0  0  0  0  0  0  0  0  0
  1  2  1  0
  2  3  1  0
  3  4  2  0
  4  5  1  0
  5  6  1  0
  6  7  1  0
  7  8  2  0
  8  9  1  0
  9 10  2  0
 10 11  1  0
 11 12  1  0
 12 13  1  0
 13 14  2  0
 15 13  1  1
 15 16  1  0
 16 17  1  0
 17 18  1  6
 17 19  1  0
 19 20  1  0
 20 21  1  0
 21 22  1  0
 22 23  1  0
 23 24  1  0
 24 25  1  0
 25 26  1  0
 26 27  2  0
 26 28  1  0
 10 29  1  0
 29 30  2  0
  6  2  2  0
 30  7  1  0
 28 15  1  0
M  END
$$$$
