
     RDKit          3D

 26 29  0  0  0  0  0  0  0  0999 V2000
   11.2030   59.6101   11.7779 O   0  0  0  0  0  1  0  0  0  0  0  0
   12.5362   59.2705   11.9369 N   0  0  0  0  0  4  0  0  0  0  0  0
   13.4853   60.0921   11.4528 C   0  0  0  0  0  0  0  0  0  0  0  0
   14.7946   59.7059   11.6391 C   0  0  0  0  0  0  0  0  0  0  0  0
   15.1434   58.5402   12.2864 C   0  0  0  0  0  0  0  0  0  0  0  0
   16.4444   58.1353   12.4845 C   0  0  0  0  0  0  0  0  0  0  0  0
   16.7070   56.9370   13.1530 C   0  0  0  0  0  0  0  0  0  0  0  0
   15.7101   56.1314   13.6291 C   0  0  0  0  0  0  0  0  0  0  0  0
   15.9744   54.8876   14.3274 C   0  0  0  0  0  0  0  0  0  0  0  0
   15.2084   53.8479   14.2336 C   0  0  0  0  0  0  0  0  0  0  0  0
   15.3939   52.5967   14.9898 C   0  0  0  0  0  0  0  0  0  0  0  0
   16.6225   52.0260   15.2242 C   0  0  0  0  0  0  0  0  0  0  0  0
   16.7281   50.8376   15.9454 C   0  0  0  0  0  0  0  0  0  0  0  0
   15.6556   50.1858   16.4479 N   0  0  0  0  0  4  0  0  0  0  0  0
   15.8308   48.9878   17.2196 C   0  0  0  0  0  0  0  0  0  0  0  0
   16.1488   49.0998   18.6490 C   0  0  0  0  0  0  0  0  0  0  0  0
   16.2368   47.8666   19.3511 N   0  0  0  0  0  0  0  0  0  0  0  0
   15.5892   47.8070   20.6043 C   0  0  0  0  0  0  0  0  0  0  0  0
   14.5142   46.7308   20.5549 C   0  0  0  0  0  0  0  0  0  0  0  0
   14.5715   46.2072   19.1530 C   0  0  0  0  0  0  0  0  0  0  0  0
   15.8167   46.7815   18.5240 C   0  0  0  0  0  0  0  0  0  0  0  0
   14.4532   50.7467   16.2169 C   0  0  0  0  0  0  0  0  0  0  0  0
   14.3041   51.9194   15.5097 C   0  0  0  0  0  0  0  0  0  0  0  0
   14.4323   56.5612   13.4163 N   0  0  0  0  0  0  0  0  0  0  0  0
   14.1487   57.7021   12.7808 C   0  0  0  0  0  0  0  0  0  0  0  0
   12.8505   58.1150   12.5791 C   0  0  0  0  0  0  0  0  0  0  0  0
  1  2  1  0
  2  3  2  0
  3  4  1  0
  4  5  2  0
  5  6  1  0
  6  7  2  0
  7  8  1  0
  8  9  1  0
  9 10  2  3
 10 11  1  0
 11 12  2  0
 12 13  1  0
 13 14  2  0
 14 15  1  0
 15 16  1  0
 16 17  1  0
 17 18  1  0
 18 19  1  0
 19 20  1  0
 20 21  1  0
 14 22  1  0
 22 23  2  0
  8 24  2  0
 24 25  1  0
 25 26  2  0
 26  2  1  0
 25  5  1  0
 23 11  1  0
 21 17  1  0
M  CHG  3   1  -1   2   1  14   1
M  END
$$$$
