
     RDKit          3D

 24 27  0  0  0  0  0  0  0  0999 V2000
   23.0962   48.6319   19.1426 Cl  0  0  0  0  0  0  0  0  0  0  0  0
   21.3331   48.6097   19.0349 C   0  0  0  0  0  0  0  0  0  0  0  0
   20.6696   49.8046   18.8691 C   0  0  0  0  0  0  0  0  0  0  0  0
   19.2825   49.8104   18.7839 C   0  0  0  0  0  0  0  0  0  0  0  0
   18.5568   48.6376   18.8626 C   0  0  0  0  0  0  0  0  0  0  0  0
   17.0828   48.6232   18.7849 C   0  0  0  0  0  0  0  0  0  0  0  0
   16.5809   50.0005   18.7871 N   0  0  0  0  0  0  0  0  0  0  0  0
   16.0911   50.6141   17.6057 C   0  0  0  0  0  0  0  0  0  0  0  0
   14.8854   50.1496   17.1207 C   0  0  0  0  0  0  0  0  0  0  0  0
   14.3747   50.7253   15.9794 C   0  0  0  0  0  0  0  0  0  0  0  0
   15.0847   51.7546   15.3481 C   0  0  0  0  0  0  0  0  0  0  0  0
   14.8172   52.4608   14.2601 N   0  0  0  0  0  0  0  0  0  0  0  0
   15.8213   53.3448   14.0640 C   0  0  0  0  0  0  0  0  0  0  0  0
   15.8426   54.2660   12.9703 N   0  0  0  0  0  0  0  0  0  0  0  0
   17.0975   54.8967   12.6369 C   0  0  0  0  0  0  0  0  0  0  0  0
   16.9245   56.3937   12.7839 C   0  0  0  0  0  0  0  0  0  0  0  0
   15.4846   56.8285   12.6320 C   0  0  0  0  0  0  0  0  0  0  0  0
   14.8897   55.9535   11.5441 C   0  0  0  0  0  0  0  0  0  0  0  0
   14.6826   54.5903   12.1684 C   0  0  0  0  0  0  0  0  0  0  0  0
   16.6818   53.1627   15.0320 O   0  0  0  0  0  0  0  0  0  0  0  0
   16.2867   52.2081   15.8432 C   0  0  0  0  0  0  0  0  0  0  0  0
   16.7905   51.6260   16.9868 C   0  0  0  0  0  0  0  0  0  0  0  0
   19.2337   47.4567   19.0282 C   0  0  0  0  0  0  0  0  0  0  0  0
   20.6299   47.4273   19.1162 C   0  0  0  0  0  0  0  0  0  0  0  0
  1  2  1  0
  2  3  2  0
  3  4  1  0
  4  5  2  0
  5  6  1  0
  6  7  1  0
  7  8  1  0
  8  9  2  0
  9 10  1  0
 10 11  2  0
 11 12  1  0
 12 13  2  0
 13 14  1  0
 14 15  1  0
 15 16  1  0
 16 17  1  0
 17 18  1  0
 18 19  1  0
 13 20  1  0
 20 21  1  0
 21 22  2  0
  5 23  1  0
 23 24  2  0
 24  2  1  0
 22  8  1  0
 21 11  1  0
 19 14  1  0
M  END
$$$$
