
     RDKit          3D

 28 31  0  0  0  0  0  0  0  0999 V2000
   12.6950   65.2404   14.4916 C   0  0  0  0  0  0  0  0  0  0  0  0
   12.7153   63.9029   14.0765 O   0  0  0  0  0  0  0  0  0  0  0  0
   12.0177   63.4572   12.9548 C   0  0  0  0  0  0  0  0  0  0  0  0
   11.1834   64.2478   12.1346 C   0  0  0  0  0  0  0  0  0  0  0  0
   10.6818   63.4224   11.1426 C   0  0  0  0  0  0  0  0  0  0  0  0
   11.1958   62.1740   11.3572 N   0  0  0  0  0  0  0  0  0  0  0  0
   12.0142   62.2170   12.4718 C   0  0  0  0  0  0  0  0  0  0  0  0
   12.6864   61.0114   12.9705 C   0  0  0  0  0  0  0  0  0  0  0  0
   12.7076   59.8973   12.2615 C   0  0  0  0  0  0  0  0  0  0  0  0
   11.8509   59.5385   11.1584 C   0  0  0  0  0  0  0  0  0  0  0  0
   11.0786   60.2408   10.4885 O   0  0  0  0  0  0  0  0  0  0  0  0
   12.0340   58.1227   10.8995 N   0  0  0  0  0  0  0  0  0  0  0  0
   12.9773   57.6322   11.8125 C   0  0  0  0  0  0  0  0  0  0  0  0
   13.4563   56.3008   11.9937 C   0  0  0  0  0  0  0  0  0  0  0  0
   14.3541   56.0856   13.0042 C   0  0  0  0  0  0  0  0  0  0  0  0
   14.7747   57.0949   13.7953 C   0  0  0  0  0  0  0  0  0  0  0  0
   15.6434   56.8490   14.8076 F   0  0  0  0  0  0  0  0  0  0  0  0
   14.3078   58.4569   13.6311 C   0  0  0  0  0  0  0  0  0  0  0  0
   14.8651   59.3645   14.4827 C   0  0  0  0  0  0  0  0  0  0  0  0
   15.3967   60.2516   15.2850 C   0  0  0  0  0  0  0  0  0  0  0  0
   15.9742   61.2515   16.1589 C   0  0  2  0  0  0  0  0  0  0  0  0
   16.6083   60.6026   17.3806 C   0  0  0  0  0  0  0  0  0  0  0  0
   16.5081   61.7342   18.4023 C   0  0  1  0  0  0  0  0  0  0  0  0
   17.5524   62.6156   18.1538 O   0  0  0  0  0  0  0  0  0  0  0  0
   15.1723   62.3070   18.1031 C   0  0  0  0  0  0  0  0  0  0  0  0
   14.7347   61.8445   16.7936 N   0  0  0  0  0  0  0  0  0  0  0  0
   13.7369   60.7862   16.9792 C   0  0  0  0  0  0  0  0  0  0  0  0
   13.4287   58.6358   12.6452 C   0  0  0  0  0  0  0  0  0  0  0  0
  1  2  1  0
  2  3  1  0
  3  4  1  0
  4  5  2  0
  5  6  1  0
  6  7  1  0
  7  8  1  0
  8  9  2  0
  9 10  1  0
 10 11  2  0
 10 12  1  0
 12 13  1  0
 13 14  2  0
 14 15  1  0
 15 16  2  0
 16 17  1  0
 16 18  1  0
 18 19  1  0
 19 20  3  0
 21 20  1  6
 21 22  1  0
 22 23  1  0
 23 24  1  6
 23 25  1  0
 25 26  1  0
 26 27  1  0
 18 28  2  0
  7  3  2  0
 28  9  1  0
 28 13  1  0
 26 21  1  0
M  END
$$$$
