
     RDKit          3D

 26 28  0  0  0  0  0  0  0  0999 V2000
   18.5088   47.8904   16.1523 C   0  0  0  0  0  0  0  0  0  0  0  0
   17.8152   49.0139   16.8889 C   0  0  0  0  0  0  0  0  0  0  0  0
   17.7864   50.1184   16.0224 O   0  0  0  0  0  0  0  0  0  0  0  0
   16.6183   50.7907   15.7990 C   0  0  0  0  0  0  0  0  0  0  0  0
   15.5590   50.6156   16.6887 C   0  0  0  0  0  0  0  0  0  0  0  0
   14.3767   51.2995   16.4624 C   0  0  0  0  0  0  0  0  0  0  0  0
   14.2536   52.1374   15.3764 C   0  0  0  0  0  0  0  0  0  0  0  0
   15.3358   52.2895   14.5051 C   0  0  0  0  0  0  0  0  0  0  0  0
   16.5182   51.6189   14.7116 C   0  0  0  0  0  0  0  0  0  0  0  0
   17.6082   51.7705   13.8375 N   0  0  0  0  0  0  0  0  0  0  0  0
   17.6307   52.7560   12.7924 C   0  0  0  0  0  0  0  0  0  0  0  0
   18.5224   52.6386   11.7539 C   0  0  0  0  0  0  0  0  0  0  0  0
   18.6005   53.5580   10.7232 C   0  0  0  0  0  0  0  0  0  0  0  0
   17.7398   54.6383   10.7485 C   0  0  0  0  0  0  0  0  0  0  0  0
   17.7407   55.6380    9.7367 N   0  0  0  0  0  0  0  0  0  0  0  0
   16.8476   54.7446   11.8003 C   0  0  0  0  0  0  0  0  0  0  0  0
   15.9330   55.9128   11.8202 C   0  0  0  0  0  0  0  0  0  0  0  0
   16.2520   56.9592   11.2048 O   0  0  0  0  0  0  0  0  0  0  0  0
   14.7138   55.8678   12.5209 N   0  0  0  0  0  0  0  0  0  0  0  0
   13.8210   56.9070   12.7772 C   0  0  0  0  0  0  0  0  0  0  0  0
   14.1144   58.2149   12.5963 C   0  0  0  0  0  0  0  0  0  0  0  0
   13.2008   59.2416   12.8784 C   0  0  0  0  0  0  0  0  0  0  0  0
   11.9701   58.8767   13.3539 C   0  0  0  0  0  0  0  0  0  0  0  0
   11.6739   57.5751   13.5352 N   0  0  0  0  0  0  0  0  0  0  0  0
   12.5596   56.6037   13.2606 C   0  0  0  0  0  0  0  0  0  0  0  0
   16.8077   53.8254   12.7805 N   0  0  0  0  0  0  0  0  0  0  0  0
  1  2  1  0
  2  3  1  0
  3  4  1  0
  4  5  2  0
  5  6  1  0
  6  7  2  0
  7  8  1  0
  8  9  2  0
  9 10  1  0
 10 11  1  0
 11 12  2  0
 12 13  1  0
 13 14  2  0
 14 15  1  0
 14 16  1  0
 16 17  1  0
 17 18  2  0
 17 19  1  0
 19 20  1  0
 20 21  2  0
 21 22  1  0
 22 23  2  0
 23 24  1  0
 24 25  2  0
 16 26  2  0
  9  4  1  0
 26 11  1  0
 25 20  1  0
M  END
$$$$
