
     RDKit          3D

 22 23  0  0  0  0  0  0  0  0999 V2000
   15.1179   98.5109   54.0901 C   0  0  0  0  0  0  0  0  0  0  0  0
   14.3458   99.1194   55.1724 N   0  0  0  0  0  0  0  0  0  0  0  0
   13.8116   98.3757   56.2330 C   0  0  0  0  0  0  0  0  0  0  0  0
   14.0787   97.1517   56.3129 O   0  0  0  0  0  0  0  0  0  0  0  0
   12.9508   98.9512   57.2635 C   0  0  0  0  0  0  0  0  0  0  0  0
   12.5688  100.2813   57.2569 C   0  0  0  0  0  0  0  0  0  0  0  0
   11.7591  100.7956   58.2450 C   0  0  0  0  0  0  0  0  0  0  0  0
   11.3096   99.9899   59.2678 C   0  0  0  0  0  0  0  0  0  0  0  0
   10.2848  100.5990   60.5325 Cl  0  0  0  0  0  0  0  0  0  0  0  0
   11.6774   98.6512   59.2996 C   0  0  0  0  0  0  0  0  0  0  0  0
   11.2039   97.8270   60.3741 N   0  0  0  0  0  0  0  0  0  0  0  0
   12.0546   97.2492   61.3559 C   0  0  0  0  0  0  0  0  0  0  0  0
   13.2921   97.2804   61.1426 O   0  0  0  0  0  0  0  0  0  0  0  0
   11.5356   96.6506   62.5483 N   0  0  0  0  0  0  0  0  0  0  0  0
   12.4629   96.0247   63.4673 C   0  0  0  0  0  0  0  0  0  0  0  0
   12.7292   94.6107   63.1870 C   0  0  0  0  0  0  0  0  0  0  0  0
   13.8913   94.1589   62.5592 C   0  0  0  0  0  0  0  0  0  0  0  0
   13.8118   92.7930   62.4526 C   0  0  0  0  0  0  0  0  0  0  0  0
   12.6534   92.3785   62.9855 N   0  0  0  0  0  0  0  0  0  0  0  0
   12.2024   90.9808   63.0578 C   0  0  0  0  0  0  0  0  0  0  0  0
   12.0005   93.4696   63.4279 C   0  0  0  0  0  0  0  0  0  0  0  0
   12.4734   98.1899   58.3089 C   0  0  0  0  0  0  0  0  0  0  0  0
  1  2  1  0
  2  3  1  0
  3  4  2  0
  3  5  1  0
  5  6  2  0
  6  7  1  0
  7  8  2  0
  8  9  1  0
  8 10  1  0
 10 11  1  0
 11 12  1  0
 12 13  2  0
 12 14  1  0
 14 15  1  0
 15 16  1  0
 16 17  1  0
 17 18  2  0
 18 19  1  0
 19 20  1  0
 19 21  1  0
 10 22  2  0
 22  5  1  0
 21 16  2  0
M  END
$$$$
