
     RDKit          3D

 33 37  0  0  0  0  0  0  0  0999 V2000
   10.8950   98.2135   53.7136 C   0  0  0  0  0  0  0  0  0  0  0  0
   11.2853   98.0566   55.1153 C   0  0  0  0  0  0  0  0  0  0  0  0
   10.4165   97.2663   55.9119 C   0  0  0  0  0  0  0  0  0  0  0  0
   10.7466   97.1137   57.1940 N   0  0  0  0  0  0  0  0  0  0  0  0
   11.8327   97.6566   57.7545 C   0  0  0  0  0  0  0  0  0  0  0  0
   12.1417   97.4608   59.1470 N   0  0  0  0  0  0  0  0  0  0  0  0
   12.9964   98.1725   59.9012 C   0  0  0  0  0  0  0  0  0  0  0  0
   13.0002   97.6567   61.1970 C   0  0  0  0  0  0  0  0  0  0  0  0
   12.1054   96.6092   61.1600 C   0  0  0  0  0  0  0  0  0  0  0  0
   11.7917   95.7717   62.3193 C   0  0  0  0  0  0  0  0  0  0  0  0
   10.5659   95.5881   62.5844 O   0  0  0  0  0  0  0  0  0  0  0  0
   12.7583   95.1758   63.1328 N   0  0  0  0  0  0  0  0  0  0  0  0
   12.5826   95.0896   64.5616 C   0  0  0  0  0  0  0  0  0  0  0  0
   12.7451   93.6070   64.9180 C   0  0  0  0  0  0  0  0  0  0  0  0
   14.1237   93.1500   64.5621 C   0  0  0  0  0  0  0  0  0  0  0  0
   14.0338   91.8529   63.8768 N   0  0  0  0  0  0  0  0  0  0  0  0
   13.5295   90.9177   64.8718 C   0  0  0  0  0  0  0  0  0  0  0  0
   15.3691   91.4278   63.4701 C   0  0  0  0  0  0  0  0  0  0  0  0
   14.8417   94.1235   63.6877 C   0  0  0  0  0  0  0  0  0  0  0  0
   13.9617   94.6301   62.5551 C   0  0  0  0  0  0  0  0  0  0  0  0
   11.6238   96.5414   59.9053 N   0  0  0  0  0  0  0  0  0  0  0  0
   12.6248   98.3908   56.9791 N   0  0  0  0  0  0  0  0  0  0  0  0
   12.3882   98.6192   55.6436 C   0  0  0  0  0  0  0  0  0  0  0  0
   13.3317   99.4395   54.9034 C   0  0  0  0  0  0  0  0  0  0  0  0
   13.4559   99.7624   53.5823 C   0  0  0  0  0  0  0  0  0  0  0  0
   14.5602  100.5933   53.3966 C   0  0  0  0  0  0  0  0  0  0  0  0
   15.1163  100.7787   54.6249 C   0  0  0  0  0  0  0  0  0  0  0  0
   14.3777  100.0909   55.4967 N   0  0  0  0  0  0  0  0  0  0  0  0
   16.3438  101.6391   54.8173 C   0  0  0  0  0  0  0  0  0  0  0  0
   17.0901  101.7838   53.5394 C   0  0  0  0  0  0  0  0  0  0  0  0
   16.2744  101.9910   52.3712 N   0  0  0  0  0  0  0  0  0  0  0  0
   15.1075  101.1908   52.1918 C   0  0  0  0  0  0  0  0  0  0  0  0
   14.6226  101.0412   51.0566 O   0  0  0  0  0  0  0  0  0  0  0  0
  1  2  1  0
  2  3  2  0
  3  4  1  0
  4  5  2  0
  5  6  1  0
  6  7  1  0
  7  8  2  0
  8  9  1  0
  9 10  1  0
 10 11  2  0
 10 12  1  0
 12 13  1  0
 13 14  1  0
 14 15  1  0
 15 16  1  0
 16 17  1  0
 16 18  1  0
 15 19  1  0
 19 20  1  0
  9 21  2  0
  5 22  1  0
 22 23  2  0
 23 24  1  0
 24 25  2  0
 25 26  1  0
 26 27  2  0
 27 28  1  0
 27 29  1  0
 29 30  1  0
 30 31  1  0
 31 32  1  0
 32 33  2  0
 23  2  1  0
 28 24  1  0
 21  6  1  0
 32 26  1  0
 20 12  1  0
M  END
$$$$
