
     RDKit          3D

 42 47  0  0  0  0  0  0  0  0999 V2000
   13.7883   99.7802   52.9847 C   0  0  0  0  0  0  0  0  0  0  0  0
   14.9784  100.5798   53.4379 C   0  0  0  0  0  0  0  0  0  0  0  0
   15.6557  101.4885   52.7122 N   0  0  0  0  0  0  0  0  0  0  0  0
   16.6329  101.9716   53.4601 N   0  0  0  0  0  0  0  0  0  0  0  0
   16.6311  101.4190   54.6546 N   0  0  0  0  0  0  0  0  0  0  0  0
   17.5367  101.6715   55.7707 C   0  0  0  0  0  0  0  0  0  0  0  0
   15.6073  100.5460   54.6663 C   0  0  0  0  0  0  0  0  0  0  0  0
   15.2123   99.6981   55.7791 C   0  0  0  0  0  0  0  0  0  0  0  0
   16.1725   99.0644   56.5390 C   0  0  0  0  0  0  0  0  0  0  0  0
   15.7395   98.2956   57.5525 N   0  0  0  0  0  0  0  0  0  0  0  0
   14.4303   98.1235   57.8487 C   0  0  0  0  0  0  0  0  0  0  0  0
   13.7479   97.4059   58.8111 C   0  0  0  0  0  0  0  0  0  0  0  0
   14.2245   96.6012   59.8194 C   0  0  0  0  0  0  0  0  0  0  0  0
   13.3287   95.9754   60.6763 C   0  0  0  0  0  0  0  0  0  0  0  0
   13.8210   95.1478   61.7167 N   0  0  0  0  0  0  0  0  0  0  0  0
   12.9283   94.1617   62.2977 C   0  0  1  0  0  0  0  0  0  0  0  0
   13.8069   93.0230   62.7992 C   0  0  0  0  0  0  0  0  0  0  0  0
   12.1030   94.7246   63.3679 C   0  0  0  0  0  0  0  0  0  0  0  0
   12.4669   95.8036   63.8980 O   0  0  0  0  0  0  0  0  0  0  0  0
   10.9254   94.0784   63.8000 N   0  0  0  0  0  0  0  0  0  0  0  0
   10.4065   92.9634   63.0532 C   0  0  0  0  0  0  0  0  0  0  0  0
   10.2549   94.5487   64.9927 C   0  0  0  0  0  0  0  0  0  0  0  0
   12.0218   96.1662   60.5060 N   0  0  0  0  0  0  0  0  0  0  0  0
   11.4950   96.9368   59.5445 C   0  0  0  0  0  0  0  0  0  0  0  0
   12.3813   97.5772   58.6694 C   0  0  0  0  0  0  0  0  0  0  0  0
   12.2186   98.3974   57.6236 N   0  0  0  0  0  0  0  0  0  0  0  0
   10.9906   98.8787   57.0755 C   0  0  2  0  0  0  0  0  0  0  0  0
   10.5279  100.0508   57.8474 C   0  0  0  0  0  0  0  0  0  0  0  0
   10.5291  101.3528   57.4149 C   0  0  0  0  0  0  0  0  0  0  0  0
   10.0836  102.4106   58.1802 C   0  0  0  0  0  0  0  0  0  0  0  0
    9.6141  102.1265   59.4483 C   0  0  0  0  0  0  0  0  0  0  0  0
    9.0347  103.4268   60.4680 Cl  0  0  0  0  0  0  0  0  0  0  0  0
    9.5949  100.8205   59.9271 C   0  0  0  0  0  0  0  0  0  0  0  0
   10.0474   99.7853   59.1368 C   0  0  0  0  0  0  0  0  0  0  0  0
    9.9399   97.8316   56.8492 C   0  0  0  0  0  0  0  0  0  0  0  0
    8.5675   98.4564   56.8401 C   0  0  0  0  0  0  0  0  0  0  0  0
    7.9227   98.3814   55.4735 C   0  0  0  0  0  0  0  0  0  0  0  0
    7.8201   97.1035   54.9826 O   0  0  0  0  0  0  0  0  0  0  0  0
    8.8881   96.2803   55.3005 C   0  0  0  0  0  0  0  0  0  0  0  0
   10.1065   97.1587   55.4946 C   0  0  0  0  0  0  0  0  0  0  0  0
   13.4471   98.7382   57.1146 C   0  0  0  0  0  0  0  0  0  0  0  0
   13.8604   99.5350   56.0661 C   0  0  0  0  0  0  0  0  0  0  0  0
  1  2  1  0
  2  3  1  0
  3  4  2  0
  4  5  1  0
  5  6  1  0
  5  7  1  0
  7  8  1  0
  8  9  2  0
  9 10  1  0
 10 11  2  0
 11 12  1  0
 12 13  2  0
 13 14  1  0
 14 15  1  0
 15 16  1  0
 16 17  1  1
 16 18  1  0
 18 19  2  0
 18 20  1  0
 20 21  1  0
 20 22  1  0
 14 23  2  0
 23 24  1  0
 24 25  2  0
 25 26  1  0
 26 27  1  0
 27 28  1  0
 28 29  2  0
 29 30  1  0
 30 31  2  0
 31 32  1  0
 31 33  1  0
 33 34  2  0
 27 35  1  1
 35 36  1  0
 36 37  1  0
 37 38  1  0
 38 39  1  0
 39 40  1  0
 26 41  1  0
 41 42  2  0
  7  2  2  0
 42  8  1  0
 41 11  1  0
 25 12  1  0
 34 28  1  0
 40 35  1  0
M  END
$$$$
