
     RDKit          3D

 27 31  0  0  0  0  0  0  0  0999 V2000
   -2.9444   69.8471   32.2915 C   0  0  0  0  0  0  0  0  0  0  0  0
   -3.3721   68.4358   32.1858 C   0  0  0  0  0  0  0  0  0  0  0  0
   -4.7014   68.1388   32.3003 C   0  0  0  0  0  0  0  0  0  0  0  0
   -5.1272   66.8255   32.2050 C   0  0  0  0  0  0  0  0  0  0  0  0
   -4.2577   65.7822   31.9959 C   0  0  0  0  0  0  0  0  0  0  0  0
   -4.6846   64.3746   31.8905 C   0  0  0  0  0  0  0  0  0  0  0  0
   -5.5390   63.6152   32.1752 N   0  0  0  0  0  0  0  0  0  0  0  0
   -5.5818   62.3544   31.8950 N   0  0  0  0  0  0  0  0  0  0  0  0
   -4.7182   61.7599   31.2792 C   0  0  0  0  0  0  0  0  0  0  0  0
   -4.4079   60.4783   30.8007 N   0  0  0  0  0  0  0  0  0  0  0  0
   -5.2908   59.5136   30.4855 C   0  0  0  0  0  0  0  0  0  0  0  0
   -6.7516   59.6346   30.5882 C   0  0  0  0  0  0  0  0  0  0  0  0
   -7.4554   58.5801   31.1266 C   0  0  0  0  0  0  0  0  0  0  0  0
   -8.8159   58.5981   31.2638 C   0  0  0  0  0  0  0  0  0  0  0  0
   -9.4994   59.7218   30.8429 C   0  0  0  0  0  0  0  0  0  0  0  0
   -8.8058   60.7879   30.3005 C   0  0  0  0  0  0  0  0  0  0  0  0
   -7.4300   60.7354   30.1768 C   0  0  0  0  0  0  0  0  0  0  0  0
   -4.5482   58.4301   30.0617 C   0  0  0  0  0  0  0  0  0  0  0  0
   -3.1995   58.7399   30.1202 C   0  0  0  0  0  0  0  0  0  0  0  0
   -3.1466   60.0368   30.5896 C   0  0  0  0  0  0  0  0  0  0  0  0
   -1.7973   60.6544   30.7599 C   0  0  0  0  0  0  0  0  0  0  0  0
   -0.8422   59.7019   31.3919 C   0  0  0  0  0  0  0  0  0  0  0  0
   -0.9909   58.2836   30.9698 C   0  0  0  0  0  0  0  0  0  0  0  0
   -1.9264   58.0650   29.8237 C   0  0  0  0  0  0  0  0  0  0  0  0
   -3.5236   63.2046   30.9734 S   0  0  0  0  0  0  0  0  0  0  0  0
   -2.9200   66.0986   31.8825 C   0  0  0  0  0  0  0  0  0  0  0  0
   -2.4699   67.3934   31.9732 C   0  0  0  0  0  0  0  0  0  0  0  0
  1  2  1  0
  2  3  2  0
  3  4  1  0
  4  5  2  0
  5  6  1  0
  6  7  2  0
  7  8  1  0
  8  9  2  0
  9 10  1  0
 10 11  1  0
 11 12  1  0
 12 13  2  0
 13 14  1  0
 14 15  2  0
 15 16  1  0
 16 17  2  0
 11 18  2  0
 18 19  1  0
 19 20  2  0
 20 21  1  0
 21 22  1  0
 22 23  1  0
 23 24  1  0
  9 25  1  0
  5 26  1  0
 26 27  2  0
 27  2  1  0
 25  6  1  0
 20 10  1  0
 17 12  1  0
 24 19  1  0
M  END
$$$$
