
     RDKit          3D

 25 28  0  0  0  0  0  0  0  0999 V2000
   13.3821   98.9525   55.1433 O   0  0  0  0  0  0  0  0  0  0  0  0
   14.1513   99.8995   55.5905 C   0  0  0  0  0  0  0  0  0  0  0  0
   13.9481  100.1922   56.9520 N   0  0  0  0  0  0  0  0  0  0  0  0
   12.9913   99.4279   57.7229 C   0  0  0  0  0  0  0  0  0  0  0  0
   12.1042   98.5602   57.1516 C   0  0  0  0  0  0  0  0  0  0  0  0
   11.3751   98.0266   58.1341 N   0  0  0  0  0  0  0  0  0  0  0  0
   11.7718   98.5274   59.3014 N   0  0  0  0  0  0  0  0  0  0  0  0
   11.1734   98.1455   60.5637 C   0  0  0  0  0  0  0  0  0  0  0  0
   11.9350   96.9994   61.1457 C   0  0  0  0  0  0  0  0  0  0  0  0
   13.2300   96.7498   60.7369 C   0  0  0  0  0  0  0  0  0  0  0  0
   13.9543   95.6861   61.2687 C   0  0  0  0  0  0  0  0  0  0  0  0
   13.3240   94.9019   62.2132 C   0  0  0  0  0  0  0  0  0  0  0  0
   14.0044   93.8575   62.7501 F   0  0  0  0  0  0  0  0  0  0  0  0
   12.0349   95.1348   62.6330 C   0  0  0  0  0  0  0  0  0  0  0  0
   11.3318   96.1837   62.1033 C   0  0  0  0  0  0  0  0  0  0  0  0
   12.7814   99.4069   59.0786 C   0  0  0  0  0  0  0  0  0  0  0  0
   15.0960  100.5198   54.6806 C   0  0  0  0  0  0  0  0  0  0  0  0
   15.9556  101.5143   55.0993 N   0  0  0  0  0  0  0  0  0  0  0  0
   16.7250  101.9052   54.1286 N   0  0  0  0  0  0  0  0  0  0  0  0
   16.4255  101.1968   53.0109 C   0  0  0  0  0  0  0  0  0  0  0  0
   16.9307  101.1995   51.7303 C   0  0  0  0  0  0  0  0  0  0  0  0
   16.4277  100.3379   50.7830 C   0  0  0  0  0  0  0  0  0  0  0  0
   15.4137   99.4747   51.1364 C   0  0  0  0  0  0  0  0  0  0  0  0
   14.9084   99.4783   52.4318 C   0  0  0  0  0  0  0  0  0  0  0  0
   15.3970  100.3272   53.3763 C   0  0  0  0  0  0  0  0  0  0  0  0
  1  2  2  0
  2  3  1  0
  3  4  1  0
  4  5  1  0
  5  6  2  0
  6  7  1  0
  7  8  1  0
  8  9  1  0
  9 10  2  0
 10 11  1  0
 11 12  2  0
 12 13  1  0
 12 14  1  0
 14 15  2  0
  7 16  1  0
  2 17  1  0
 17 18  2  0
 18 19  1  0
 19 20  1  0
 20 21  2  0
 21 22  1  0
 22 23  2  0
 23 24  1  0
 24 25  2  0
 16  4  2  0
 25 17  1  0
 15  9  1  0
 25 20  1  0
M  END
$$$$
