
     RDKit          3D

 33 37  0  0  0  0  0  0  0  0999 V2000
    9.6181   97.2107   59.0576 O   0  0  0  0  0  0  0  0  0  0  0  0
   10.6270   97.9275   59.3790 C   0  0  0  0  0  0  0  0  0  0  0  0
   11.0099   98.9838   58.4730 C   0  0  0  0  0  0  0  0  0  0  0  0
   11.4431   98.7487   57.1591 C   0  0  0  0  0  0  0  0  0  0  0  0
   11.7949   99.7839   56.3324 C   0  0  0  0  0  0  0  0  0  0  0  0
   12.2437   99.5650   54.9222 C   0  0  0  0  0  0  0  0  0  0  0  0
   13.5660  100.1605   54.6645 C   0  0  0  0  0  0  0  0  0  0  0  0
   14.3367  100.5222   55.7220 N   0  0  0  0  0  0  0  0  0  0  0  0
   15.5022  101.0967   55.5377 N   0  0  0  0  0  0  0  0  0  0  0  0
   15.9626  101.3420   54.2864 C   0  0  0  0  0  0  0  0  0  0  0  0
   17.0832  101.8952   54.0921 O   0  0  0  0  0  0  0  0  0  0  0  0
   15.2347  101.0015   53.1749 C   0  0  0  0  0  0  0  0  0  0  0  0
   13.9978  100.3900   53.3854 C   0  0  0  0  0  0  0  0  0  0  0  0
   13.2219   99.9876   52.1911 C   0  0  0  0  0  0  0  0  0  0  0  0
   14.1576   99.3067   51.2119 C   0  0  0  0  0  0  0  0  0  0  0  0
   15.4706   99.9582   51.0198 C   0  0  0  0  0  0  0  0  0  0  0  0
   15.6419  101.2424   51.7772 C   0  0  0  0  0  0  0  0  0  0  0  0
   11.7405  101.1178   56.7556 C   0  0  0  0  0  0  0  0  0  0  0  0
   11.3167  101.3413   58.0409 C   0  0  0  0  0  0  0  0  0  0  0  0
   10.9589  100.2952   58.8815 C   0  0  0  0  0  0  0  0  0  0  0  0
   10.5517  100.5912   60.1329 F   0  0  0  0  0  0  0  0  0  0  0  0
   11.2652   97.6177   60.5827 N   0  0  0  0  0  0  0  0  0  0  0  0
   12.6545   97.9168   60.8476 C   0  0  0  0  0  0  0  0  0  0  0  0
   13.3726   96.5844   61.0200 C   0  0  0  0  0  0  0  0  0  0  0  0
   12.6635   95.8443   62.0337 N   0  0  0  0  0  0  0  0  0  0  0  0
   13.1083   94.5618   62.4083 C   0  0  0  0  0  0  0  0  0  0  0  0
   12.2609   93.7114   62.8592 O   0  0  0  0  0  0  0  0  0  0  0  0
   14.5276   94.1468   62.3036 C   0  0  0  0  0  0  0  0  0  0  0  0
   14.9297   93.4371   61.2021 O   0  0  0  0  0  0  0  0  0  0  0  0
   15.5199   94.9966   63.0124 C   0  0  0  0  0  0  0  0  0  0  0  0
   15.1883   93.6539   63.6045 C   0  0  0  0  0  0  0  0  0  0  0  0
   11.4738   96.3940   62.6925 C   0  0  0  0  0  0  0  0  0  0  0  0
   10.5203   96.9639   61.6418 C   0  0  0  0  0  0  0  0  0  0  0  0
  1  2  2  0
  2  3  1  0
  3  4  2  0
  4  5  1  0
  5  6  1  0
  6  7  1  0
  7  8  2  0
  8  9  1  0
  9 10  1  0
 10 11  2  0
 10 12  1  0
 12 13  2  0
 13 14  1  0
 14 15  1  0
 15 16  1  0
 16 17  1  0
  5 18  2  0
 18 19  1  0
 19 20  2  0
 20 21  1  0
  2 22  1  0
 22 23  1  0
 23 24  1  0
 24 25  1  0
 25 26  1  0
 26 27  2  0
 26 28  1  0
 28 29  1  0
 28 30  1  0
 30 31  1  0
 25 32  1  0
 32 33  1  0
 20  3  1  0
 33 22  1  0
 13  7  1  0
 31 28  1  0
 17 12  1  0
M  END
$$$$
