
     RDKit          3D

 30 32  0  0  0  0  0  0  0  0999 V2000
   12.2720   49.0579   16.7059 C   0  0  0  0  0  0  0  0  0  0  0  0
   13.0060   48.8536   17.8924 O   0  0  0  0  0  0  0  0  0  0  0  0
   14.3782   48.6840   17.9182 C   0  0  0  0  0  0  0  0  0  0  0  0
   14.9224   47.8259   18.8414 C   0  0  0  0  0  0  0  0  0  0  0  0
   16.2881   47.6435   18.8828 C   0  0  0  0  0  0  0  0  0  0  0  0
   17.1072   48.3287   17.9902 C   0  0  0  0  0  0  0  0  0  0  0  0
   16.5145   49.1830   17.0773 C   0  0  0  0  0  0  0  0  0  0  0  0
   17.3658   49.8754   16.1724 N   0  0  0  0  0  0  0  0  0  0  0  0
   16.9641   51.1170   15.6072 C   0  0  0  0  0  0  0  0  0  0  0  0
   15.8736   51.6001   15.9976 O   0  0  0  0  0  0  0  0  0  0  0  0
   17.8473   51.7389   14.6155 C   0  0  0  0  0  0  0  0  0  0  0  0
   18.0180   53.2295   14.8561 C   0  0  0  0  0  0  0  0  0  0  0  0
   17.1188   54.0200   13.9793 C   0  0  0  0  0  0  0  0  0  0  0  0
   17.2821   54.2150   12.6619 N   0  0  0  0  0  0  0  0  0  0  0  0
   16.3032   54.9649   12.1905 N   0  0  0  0  0  0  0  0  0  0  0  0
   15.5054   55.2485   13.2345 C   0  0  0  0  0  0  0  0  0  0  0  0
   14.2762   56.0724   13.1557 C   0  0  0  0  0  0  0  0  0  0  0  0
   14.4224   57.0572   12.0416 C   0  0  0  0  0  0  0  0  0  0  0  0
   13.7223   58.3583   12.3718 C   0  0  0  0  0  0  0  0  0  0  0  0
   12.5672   58.3630   12.8171 O   0  0  0  0  0  0  0  0  0  0  0  0
   14.4444   59.5384   12.1482 N   0  0  0  0  0  0  0  0  0  0  0  0
   13.8811   60.8297   12.2137 C   0  0  0  0  0  0  0  0  0  0  0  0
   14.5343   62.0268   12.1196 C   0  0  0  0  0  0  0  0  0  0  0  0
   13.8633   63.2575   12.1997 C   0  0  0  0  0  0  0  0  0  0  0  0
   12.5071   63.3096   12.3779 C   0  0  0  0  0  0  0  0  0  0  0  0
   11.8267   62.1253   12.4755 C   0  0  0  0  0  0  0  0  0  0  0  0
   10.3545   62.1990   12.6689 C   0  0  0  0  0  0  0  0  0  0  0  0
   12.4905   60.9380   12.3961 C   0  0  0  0  0  0  0  0  0  0  0  0
   16.0262   54.6632   14.2982 O   0  0  0  0  0  0  0  0  0  0  0  0
   15.1462   49.3815   17.0177 C   0  0  0  0  0  0  0  0  0  0  0  0
  1  2  1  0
  2  3  1  0
  3  4  2  0
  4  5  1  0
  5  6  2  0
  6  7  1  0
  7  8  1  0
  8  9  1  0
  9 10  2  0
  9 11  1  0
 11 12  1  0
 12 13  1  0
 13 14  2  0
 14 15  1  0
 15 16  2  0
 16 17  1  0
 17 18  1  0
 18 19  1  0
 19 20  2  0
 19 21  1  0
 21 22  1  0
 22 23  2  0
 23 24  1  0
 24 25  2  0
 25 26  1  0
 26 27  1  0
 26 28  2  0
 16 29  1  0
  7 30  2  0
 30  3  1  0
 29 13  1  0
 28 22  1  0
M  END
$$$$
