
     RDKit          3D

 42 46  0  0  0  0  0  0  0  0999 V2000
   13.2318   68.8669   14.3803 C   0  0  0  0  0  0  0  0  0  0  0  0
   13.7771   67.7154   14.6959 C   0  0  0  0  0  0  0  0  0  0  0  0
   13.2294   66.4593   14.2325 C   0  0  0  0  0  0  0  0  0  0  0  0
   13.6015   65.3650   14.7797 O   0  0  0  0  0  0  0  0  0  0  0  0
   12.2925   66.3356   13.1984 N   0  0  0  0  0  0  0  0  0  0  0  0
   11.8150   65.0672   12.7243 C   0  0  0  0  0  0  0  0  0  0  0  0
   10.8709   65.0201   11.7276 C   0  0  0  0  0  0  0  0  0  0  0  0
   10.3776   63.7976   11.2357 C   0  0  0  0  0  0  0  0  0  0  0  0
   10.8188   62.6126   11.7306 C   0  0  0  0  0  0  0  0  0  0  0  0
   10.4041   61.3280   11.3233 N   0  0  0  0  0  0  0  0  0  0  0  0
   11.0726   60.1054   11.5600 C   0  0  0  0  0  0  0  0  0  0  0  0
   10.6069   58.9089   11.2051 N   0  0  0  0  0  0  0  0  0  0  0  0
   11.2296   57.7427   11.4229 C   0  0  0  0  0  0  0  0  0  0  0  0
   12.4507   57.7424   12.0623 C   0  0  0  0  0  0  0  0  0  0  0  0
   12.9771   58.9766   12.4524 C   0  0  0  0  0  0  0  0  0  0  0  0
   12.2796   60.0935   12.1908 N   0  0  0  0  0  0  0  0  0  0  0  0
   14.2331   59.0100   13.1130 N   0  0  0  0  0  0  0  0  0  0  0  0
   14.8079   60.2332   13.5276 C   0  0  0  0  0  0  0  0  0  0  0  0
   15.5216   60.9620   12.5959 C   0  0  0  0  0  0  0  0  0  0  0  0
   16.1195   62.1681   12.9057 C   0  0  0  0  0  0  0  0  0  0  0  0
   15.9930   62.6436   14.1786 C   0  0  0  0  0  0  0  0  0  0  0  0
   15.2791   61.9222   15.1245 C   0  0  0  0  0  0  0  0  0  0  0  0
   14.6814   60.7137   14.8093 C   0  0  0  0  0  0  0  0  0  0  0  0
   13.9806   59.9962   15.7209 F   0  0  0  0  0  0  0  0  0  0  0  0
   14.9217   57.8084   13.3619 C   0  0  0  0  0  0  0  0  0  0  0  0
   16.0496   57.7842   13.9502 O   0  0  0  0  0  0  0  0  0  0  0  0
   14.3858   56.5631   12.9658 N   0  0  0  0  0  0  0  0  0  0  0  0
   15.1074   55.3789   13.2332 C   0  0  0  0  0  0  0  0  0  0  0  0
   16.1587   54.9572   12.4228 C   0  0  0  0  0  0  0  0  0  0  0  0
   16.4517   55.7437   11.3645 F   0  0  0  0  0  0  0  0  0  0  0  0
   16.8548   53.7996   12.6948 C   0  0  0  0  0  0  0  0  0  0  0  0
   17.8923   53.4078   11.8727 O   0  0  0  0  0  0  0  0  0  0  0  0
   18.4468   52.1283   11.8488 C   0  0  0  0  0  0  0  0  0  0  0  0
   16.5394   53.0138   13.7779 C   0  0  0  0  0  0  0  0  0  0  0  0
   15.4877   53.4205   14.6026 C   0  0  0  0  0  0  0  0  0  0  0  0
   15.1674   52.6313   15.6945 O   0  0  0  0  0  0  0  0  0  0  0  0
   14.7793   51.2831   15.5326 C   0  0  0  0  0  0  0  0  0  0  0  0
   14.7990   54.5862   14.3147 C   0  0  0  0  0  0  0  0  0  0  0  0
   13.7806   54.9396   15.1503 F   0  0  0  0  0  0  0  0  0  0  0  0
   13.1136   56.4613   12.2906 C   0  0  0  0  0  0  0  0  0  0  0  0
   11.7839   62.6741   12.7492 C   0  0  0  0  0  0  0  0  0  0  0  0
   12.2673   63.8698   13.2313 C   0  0  0  0  0  0  0  0  0  0  0  0
  1  2  2  0
  2  3  1  0
  3  4  2  0
  3  5  1  0
  5  6  1  0
  6  7  2  0
  7  8  1  0
  8  9  2  0
  9 10  1  0
 10 11  1  0
 11 12  2  0
 12 13  1  0
 13 14  2  0
 14 15  1  0
 15 16  2  0
 15 17  1  0
 17 18  1  0
 18 19  2  0
 19 20  1  0
 20 21  2  0
 21 22  1  0
 22 23  2  0
 23 24  1  0
 17 25  1  0
 25 26  2  0
 25 27  1  0
 27 28  1  0
 28 29  2  0
 29 30  1  0
 29 31  1  0
 31 32  1  0
 32 33  1  0
 31 34  2  0
 34 35  1  0
 35 36  1  0
 36 37  1  0
 35 38  2  0
 38 39  1  0
 27 40  1  0
  9 41  1  0
 41 42  2  0
 42  6  1  0
 16 11  1  0
 23 18  1  0
 38 28  1  0
 40 14  1  0
M  END
$$$$
