
     RDKit          3D

 37 42  0  0  0  0  0  0  0  0999 V2000
   14.3794   48.6113   15.6458 C   0  0  0  0  0  0  0  0  0  0  0  0
   15.4555   49.5672   15.9837 C   0  0  0  0  0  0  0  0  0  0  0  0
   15.4801   50.7709   15.3750 N   0  0  0  0  0  0  0  0  0  0  0  0
   16.4157   51.6909   15.6151 C   0  0  0  0  0  0  0  0  0  0  0  0
   16.5069   52.8220   15.0712 N   0  0  0  0  0  0  0  0  0  0  0  0
   15.9971   53.2018   13.8412 C   0  0  0  0  0  0  0  0  0  0  0  0
   15.9486   52.4022   12.8793 O   0  0  0  0  0  0  0  0  0  0  0  0
   15.5033   54.5934   13.6746 C   0  0  0  0  0  0  0  0  0  0  0  0
   15.4567   55.2437   12.4735 C   0  0  0  0  0  0  0  0  0  0  0  0
   14.9916   56.5622   12.3863 C   0  0  0  0  0  0  0  0  0  0  0  0
   14.5758   57.2331   13.4854 C   0  0  0  0  0  0  0  0  0  0  0  0
   14.1053   58.6205   13.5110 C   0  0  0  0  0  0  0  0  0  0  0  0
   14.6971   59.6471   14.1490 N   0  0  0  0  0  0  0  0  0  0  0  0
   14.0259   60.7910   13.9339 C   0  0  0  0  0  0  0  0  0  0  0  0
   14.4185   62.0679   14.4840 C   0  0  0  0  0  0  0  0  0  0  0  0
   14.1197   63.2278   13.4956 C   0  0  0  0  0  0  0  0  0  0  0  0
   15.0124   64.3558   13.8836 C   0  0  0  0  0  0  0  0  0  0  0  0
   15.1143   64.6450   15.3454 C   0  0  0  0  0  0  0  0  0  0  0  0
   16.5433   65.0360   15.7006 C   0  0  0  0  0  0  0  0  0  0  0  0
   16.4940   64.9576   17.2158 C   0  0  0  0  0  0  0  0  0  0  0  0
   15.5905   63.7685   17.4226 C   0  0  0  0  0  0  0  0  0  0  0  0
   15.5222   63.0739   18.4865 O   0  0  0  0  0  0  0  0  0  0  0  0
   14.8464   63.5705   16.2353 N   0  0  0  0  0  0  0  0  0  0  0  0
   13.9002   62.5240   15.7730 C   0  0  0  0  0  0  0  0  0  0  0  0
   12.9950   60.4558   13.1433 N   0  0  0  0  0  0  0  0  0  0  0  0
   12.0134   61.2095   12.6210 C   0  0  0  0  0  0  0  0  0  0  0  0
   11.0459   60.6561   11.8160 C   0  0  0  0  0  0  0  0  0  0  0  0
   11.0789   59.3418   11.5452 N   0  0  0  0  0  0  0  0  0  0  0  0
   12.0577   58.5569   12.0598 C   0  0  0  0  0  0  0  0  0  0  0  0
   12.0669   57.1522   11.7147 N   0  0  0  0  0  0  0  0  0  0  0  0
   13.0224   59.1133   12.8657 C   0  0  0  0  0  0  0  0  0  0  0  0
   14.6238   56.5631   14.7161 C   0  0  0  0  0  0  0  0  0  0  0  0
   15.0806   55.2642   14.8070 C   0  0  0  0  0  0  0  0  0  0  0  0
   17.4102   51.3566   16.5563 C   0  0  0  0  0  0  0  0  0  0  0  0
   17.4207   50.1438   17.1985 C   0  0  0  0  0  0  0  0  0  0  0  0
   16.4111   49.2203   16.9024 C   0  0  0  0  0  0  0  0  0  0  0  0
   16.4367   48.0226   17.5475 F   0  0  0  0  0  0  0  0  0  0  0  0
  1  2  1  0
  2  3  1  0
  3  4  1  0
  4  5  2  3
  5  6  1  0
  6  7  2  0
  6  8  1  0
  8  9  2  0
  9 10  1  0
 10 11  2  0
 11 12  1  0
 12 13  1  0
 13 14  2  0
 14 15  1  0
 15 16  1  0
 16 17  1  0
 17 18  1  0
 18 19  1  0
 19 20  1  0
 20 21  1  0
 21 22  2  0
 21 23  1  0
 23 24  1  0
 14 25  1  0
 25 26  1  0
 26 27  2  0
 27 28  1  0
 28 29  2  0
 29 30  1  0
 29 31  1  0
 11 32  1  0
 32 33  2  0
  4 34  1  0
 34 35  2  0
 35 36  1  0
 36 37  1  0
 36  2  2  0
 33  8  1  0
 31 12  2  0
 24 15  1  0
 31 25  1  0
 23 18  1  0
M  END
$$$$
