
     RDKit          3D

 36 39  0  0  0  0  0  0  0  0999 V2000
   17.2350   54.9349    9.7475 C   0  0  0  0  0  0  0  0  0  0  0  0
   16.2206   55.8396   10.3431 C   0  0  0  0  0  0  0  0  0  0  0  0
   15.8211   56.8837    9.6884 C   0  0  0  0  0  0  0  0  0  0  0  0
   14.8370   57.8390   10.1566 C   0  0  0  0  0  0  0  0  0  0  0  0
   14.3609   57.7361   11.5646 C   0  0  2  0  0  0  0  0  0  0  0  0
   14.8807   58.9842   12.2730 C   0  0  0  0  0  0  0  0  0  0  0  0
   15.2415   60.0663   11.2952 C   0  0  0  0  0  0  0  0  0  0  0  0
   13.7377   59.4984   13.1216 C   0  0  0  0  0  0  0  0  0  0  0  0
   14.7411   56.5040   12.2253 C   0  0  0  0  0  0  0  0  0  0  0  0
   14.1925   56.2145   13.4807 C   0  0  0  0  0  0  0  0  0  0  0  0
   13.1812   57.1151   14.1357 C   0  0  0  0  0  0  0  0  0  0  0  0
   14.6065   55.0669   14.0949 C   0  0  0  0  0  0  0  0  0  0  0  0
   15.5321   54.1605   13.5708 C   0  0  0  0  0  0  0  0  0  0  0  0
   15.9107   53.0788   14.1714 O   0  0  0  0  0  0  0  0  0  0  0  0
   16.2865   52.0049   14.7674 C   0  0  0  0  0  0  0  0  0  0  0  0
   17.5104   51.7468   15.5133 C   0  0  0  0  0  0  0  0  0  0  0  0
   18.4222   52.6600   15.3276 O   0  0  0  0  0  0  0  0  0  0  0  0
   17.8403   50.6999   16.3703 N   0  0  0  0  0  0  0  0  0  0  0  0
   19.2414   50.3694   16.6422 C   0  0  0  0  0  0  0  0  0  0  0  0
   19.7934   51.0732   17.8053 C   0  0  0  0  0  0  0  0  0  0  0  0
   20.2897   50.6211   18.9350 N   0  0  0  0  0  0  0  0  0  0  0  0
   20.6801   51.6071   19.7377 N   0  0  0  0  0  0  0  0  0  0  0  0
   20.4100   52.7153   19.0676 N   0  0  0  0  0  0  0  0  0  0  0  0
   19.8741   52.4343   17.8974 N   0  0  0  0  0  0  0  0  0  0  0  0
   16.8019   49.9121   16.9976 C   0  0  0  0  0  0  0  0  0  0  0  0
   16.3021   50.2503   18.2472 C   0  0  0  0  0  0  0  0  0  0  0  0
   15.3376   49.4752   18.8818 C   0  0  0  0  0  0  0  0  0  0  0  0
   14.8271   48.3388   18.3144 C   0  0  0  0  0  0  0  0  0  0  0  0
   13.8008   47.5083   18.9897 C   0  0  0  0  0  0  0  0  0  0  0  0
   14.4222   46.7015   20.1018 C   0  0  0  0  0  0  0  0  0  0  0  0
   12.7955   48.4617   19.6088 C   0  0  0  0  0  0  0  0  0  0  0  0
   13.1106   46.6249   17.9895 C   0  0  0  0  0  0  0  0  0  0  0  0
   15.3135   47.9955   17.0826 C   0  0  0  0  0  0  0  0  0  0  0  0
   16.2871   48.7729   16.4370 C   0  0  0  0  0  0  0  0  0  0  0  0
   16.0659   54.4732   12.3108 C   0  0  0  0  0  0  0  0  0  0  0  0
   15.6530   55.6271   11.6856 C   0  0  0  0  0  0  0  0  0  0  0  0
  1  2  1  0
  2  3  2  0
  3  4  1  0
  4  5  1  0
  5  6  1  1
  6  7  1  0
  6  8  1  0
  5  9  1  0
  9 10  2  0
 10 11  1  0
 10 12  1  0
 12 13  2  0
 13 14  1  0
 14 15  1  0
 15 16  1  0
 16 17  2  0
 16 18  1  0
 18 19  1  0
 19 20  1  0
 20 21  2  0
 21 22  1  0
 22 23  2  0
 23 24  1  0
 18 25  1  0
 25 26  2  0
 26 27  1  0
 27 28  2  0
 28 29  1  0
 29 30  1  0
 29 31  1  0
 29 32  1  0
 28 33  1  0
 33 34  2  0
 13 35  1  0
 35 36  2  0
 36  2  1  0
 36  9  1  0
 24 20  1  0
 34 25  1  0
M  END
$$$$
