
     RDKit          3D

 15 16  0  0  0  0  0  0  0  0999 V2000
   14.0838   99.7050   52.3405 N   0  0  0  0  0  0  0  0  0  0  0  0
   14.9825  100.2619   53.2922 N   0  0  0  0  0  0  0  0  0  0  0  0
   14.6774  100.1809   54.5969 C   0  0  0  0  0  0  0  0  0  0  0  0
   13.1487   99.3737   55.0872 S   0  0  0  0  0  0  0  0  0  0  0  0
   12.9648   99.5066   56.8844 C   0  0  0  0  0  0  0  0  0  0  0  0
   11.6921  100.1843   57.2811 C   0  0  0  0  0  0  0  0  0  0  0  0
   11.9342  100.9056   58.5871 C   0  0  0  0  0  0  0  0  0  0  0  0
   10.7369  100.4792   59.4039 C   0  0  0  0  0  0  0  0  0  0  0  0
    9.7683  100.0640   58.3135 C   0  0  0  0  0  0  0  0  0  0  0  0
   10.6364   99.3316   57.4715 O   0  0  0  0  0  0  0  0  0  0  0  0
   15.5217  100.7042   55.4931 N   0  0  0  0  0  0  0  0  0  0  0  0
   16.6247  101.2817   55.0648 N   0  0  0  0  0  0  0  0  0  0  0  0
   16.9858  101.3954   53.7896 C   0  0  0  0  0  0  0  0  0  0  0  0
   16.1115  100.8534   52.8591 C   0  0  0  0  0  0  0  0  0  0  0  0
   16.3882  100.9247   51.6442 O   0  0  0  0  0  0  0  0  0  0  0  0
  1  2  1  0
  2  3  1  0
  3  4  1  0
  4  5  1  0
  5  6  1  0
  6  7  1  0
  7  8  1  0
  8  9  1  0
  9 10  1  0
  3 11  2  0
 11 12  1  0
 12 13  2  0
 13 14  1  0
 14 15  2  0
 14  2  1  0
 10  6  1  0
M  END
$$$$
