
     RDKit          3D

 32 36  0  0  0  0  0  0  0  0999 V2000
   10.7145   62.4980   12.0368 N   0  0  0  0  0  0  0  0  0  0  0  0
   11.5107   61.3028   12.1074 C   0  0  0  0  0  0  0  0  0  0  0  0
   12.6916   61.2983   12.7206 N   0  0  0  0  0  0  0  0  0  0  0  0
   13.4768   60.1684   12.8041 C   0  0  0  0  0  0  0  0  0  0  0  0
   14.6875   60.2335   13.5266 N   0  0  0  0  0  0  0  0  0  0  0  0
   15.3888   59.0972   14.0432 C   0  0  0  0  0  0  0  0  0  0  0  0
   15.5100   59.1749   15.5590 C   0  0  0  0  0  0  0  0  0  0  0  0
   15.0856   60.4675   16.1300 C   0  0  0  0  0  0  0  0  0  0  0  0
   13.7101   60.3699   16.6515 N   0  0  0  0  0  0  0  0  0  0  0  0
   15.9433   60.6880   17.3924 C   0  0  0  0  0  0  0  0  0  0  0  0
   15.4587   61.7688   18.1080 F   0  0  0  0  0  0  0  0  0  0  0  0
   15.7455   59.5724   18.1847 F   0  0  0  0  0  0  0  0  0  0  0  0
   17.2636   60.8617   17.0685 F   0  0  0  0  0  0  0  0  0  0  0  0
   15.2025   61.6937   15.3223 C   0  0  0  0  0  0  0  0  0  0  0  0
   15.2712   61.5187   13.8252 C   0  0  0  0  0  0  0  0  0  0  0  0
   13.0557   59.0072   12.2482 C   0  0  0  0  0  0  0  0  0  0  0  0
   13.5901   57.7569   12.1623 C   0  0  0  0  0  0  0  0  0  0  0  0
   14.8987   57.2366   12.6130 C   0  0  0  0  0  0  0  0  0  0  0  0
   15.9355   58.0970   12.8969 C   0  0  0  0  0  0  0  0  0  0  0  0
   17.1415   57.5448   13.3176 C   0  0  0  0  0  0  0  0  0  0  0  0
   17.2805   56.1953   13.4410 N   0  0  0  0  0  0  0  0  0  0  0  0
   16.2884   55.3357   13.1714 C   0  0  0  0  0  0  0  0  0  0  0  0
   16.4942   53.9807   13.3167 O   0  0  0  0  0  0  0  0  0  0  0  0
   16.1091   53.3558   14.5199 C   0  0  0  0  0  0  0  0  0  0  0  0
   16.6331   51.9408   14.5790 C   0  0  0  0  0  0  0  0  0  0  0  0
   16.3264   50.9656   13.5223 C   0  0  0  0  0  0  0  0  0  0  0  0
   15.5926   50.8859   14.8076 C   0  0  0  0  0  0  0  0  0  0  0  0
   15.0894   55.8784   12.7535 C   0  0  0  0  0  0  0  0  0  0  0  0
   12.6512   56.9875   11.4570 C   0  0  0  0  0  0  0  0  0  0  0  0
   11.6263   57.7668   11.1509 N   0  0  0  0  0  0  0  0  0  0  0  0
   11.8138   59.0188   11.6070 C   0  0  0  0  0  0  0  0  0  0  0  0
   11.0883   60.1545   11.5574 N   0  0  0  0  0  0  0  0  0  0  0  0
  1  2  1  0
  2  3  2  0
  3  4  1  0
  4  5  1  0
  5  6  1  0
  6  7  1  0
  7  8  1  0
  8  9  1  0
  8 10  1  0
 10 11  1  0
 10 12  1  0
 10 13  1  0
  8 14  1  0
 14 15  1  0
  4 16  2  0
 16 17  1  0
 17 18  1  0
 18 19  2  0
 19 20  1  0
 20 21  2  0
 21 22  1  0
 22 23  1  0
 23 24  1  0
 24 25  1  0
 25 26  1  0
 26 27  1  0
 22 28  2  0
 17 29  2  0
 29 30  1  0
 30 31  1  0
 31 32  2  0
 32  2  1  0
 15  5  1  0
 31 16  1  0
 28 18  1  0
 27 25  1  0
M  END
$$$$
