
     RDKit          3D

 19 21  0  0  0  0  0  0  0  0999 V2000
   31.0755   83.5958   52.9958 C   0  0  0  0  0  0  0  0  0  0  0  0
   31.1568   82.5519   51.9515 C   0  0  0  0  0  0  0  0  0  0  0  0
   29.9722   81.9520   51.5385 C   0  0  0  0  0  0  0  0  0  0  0  0
   30.0046   81.0220   50.4994 C   0  0  0  0  0  0  0  0  0  0  0  0
   31.2210   80.7351   49.9231 C   0  0  0  0  0  0  0  0  0  0  0  0
   32.3973   81.3509   50.3581 C   0  0  0  0  0  0  0  0  0  0  0  0
   32.3915   82.2539   51.3602 C   0  0  0  0  0  0  0  0  0  0  0  0
   33.6047   82.8315   51.9049 C   0  0  0  0  0  0  0  0  0  0  0  0
   34.8161   82.0884   51.8432 N   0  0  0  0  0  0  0  0  0  0  0  0
   35.6327   82.1978   50.7508 C   0  0  0  0  0  0  0  0  0  0  0  0
   35.4645   83.1265   49.5808 C   0  0  0  0  0  0  0  0  0  0  0  0
   35.9518   82.4542   48.4461 O   0  0  0  0  0  0  0  0  0  0  0  0
   36.6667   81.3901   50.9166 N   0  0  0  0  0  0  0  0  0  0  0  0
   36.5781   80.7441   52.0771 C   0  0  0  0  0  0  0  0  0  0  0  0
   37.3921   79.8168   52.7095 C   0  0  0  0  0  0  0  0  0  0  0  0
   37.0307   79.3199   53.9525 C   0  0  0  0  0  0  0  0  0  0  0  0
   35.8640   79.7738   54.5129 C   0  0  0  0  0  0  0  0  0  0  0  0
   35.0492   80.6919   53.8971 C   0  0  0  0  0  0  0  0  0  0  0  0
   35.3946   81.2040   52.6495 C   0  0  0  0  0  0  0  0  0  0  0  0
  1  2  1  0
  2  3  2  0
  3  4  1  0
  4  5  2  0
  5  6  1  0
  6  7  2  0
  7  8  1  0
  8  9  1  0
  9 10  1  0
 10 11  1  0
 11 12  1  0
 10 13  2  0
 13 14  1  0
 14 15  2  0
 15 16  1  0
 16 17  2  0
 17 18  1  0
 18 19  2  0
  7  2  1  0
 19  9  1  0
 19 14  1  0
M  END
$$$$
