
     RDKit          3D

 27 30  0  0  0  0  0  0  0  0999 V2000
   15.0423   52.8853   17.0320 O   0  0  0  0  0  0  0  0  0  0  0  0
   15.4480   51.9185   16.3821 C   0  0  0  0  0  0  0  0  0  0  0  0
   16.3470   52.0626   15.2303 C   0  0  2  0  0  0  0  0  0  0  0  0
   17.7051   52.3396   15.9274 C   0  0  0  0  0  0  0  0  0  0  0  0
   18.9765   52.3942   14.7720 S   0  0  0  0  0  3  0  0  0  0  0  0
   20.3209   53.2658   15.2605 O   0  0  0  0  0  0  0  0  0  0  0  0
   18.3380   52.9798   13.2557 C   0  0  0  0  0  0  0  0  0  0  0  0
   19.1607   53.1397   12.1682 C   0  0  0  0  0  0  0  0  0  0  0  0
   18.6553   53.5550   10.9760 C   0  0  0  0  0  0  0  0  0  0  0  0
   17.3019   53.8227   10.8403 C   0  0  0  0  0  0  0  0  0  0  0  0
   16.4973   53.6551   11.9450 C   0  0  0  0  0  0  0  0  0  0  0  0
   16.9876   53.2303   13.1883 C   0  0  0  0  0  0  0  0  0  0  0  0
   16.0738   53.0832   14.2772 N   0  0  0  0  0  0  0  0  0  0  0  0
   15.0103   53.9833   14.3747 C   0  0  0  0  0  0  0  0  0  0  0  0
   13.9347   53.5971   14.9641 O   0  0  0  0  0  0  0  0  0  0  0  0
   14.9849   55.3501   13.8761 C   0  0  0  0  0  0  0  0  0  0  0  0
   13.8113   55.9249   13.6568 C   0  0  0  0  0  0  0  0  0  0  0  0
   13.8532   57.6219   13.0371 S   0  0  0  0  0  0  0  0  0  0  0  0
   15.2312   58.4370   13.8882 C   0  0  0  0  0  0  0  0  0  0  0  0
   16.3097   57.4192   14.1292 C   0  0  0  0  0  0  0  0  0  0  0  0
   16.0685   56.1557   13.5976 O   0  0  0  0  0  0  0  0  0  0  0  0
   15.0285   50.6218   16.7637 N   0  0  0  0  0  0  0  0  0  0  0  0
   15.2452   49.4820   15.9001 C   0  0  0  0  0  0  0  0  0  0  0  0
   14.6250   48.2792   16.6235 C   0  0  0  0  0  0  0  0  0  0  0  0
   13.3018   48.5499   16.8727 O   0  0  0  0  0  0  0  0  0  0  0  0
   13.1175   49.5314   17.8414 C   0  0  0  0  0  0  0  0  0  0  0  0
   14.3655   50.3735   18.0298 C   0  0  0  0  0  0  0  0  0  0  0  0
  1  2  2  0
  3  2  1  1
  3  4  1  0
  4  5  1  0
  5  6  1  0
  5  7  1  0
  7  8  2  0
  8  9  1  0
  9 10  2  0
 10 11  1  0
 11 12  2  0
 12 13  1  0
 13 14  1  0
 14 15  2  0
 14 16  1  0
 16 17  2  0
 17 18  1  0
 18 19  1  0
 19 20  1  0
 20 21  1  0
  2 22  1  0
 22 23  1  0
 23 24  1  0
 24 25  1  0
 25 26  1  0
 26 27  1  0
 13  3  1  0
 21 16  1  0
 27 22  1  0
 12  7  1  0
M  CHG  1   5   1
M  END
$$$$
