
     RDKit          3D

 18 18  0  0  0  0  0  0  0  0999 V2000
   14.0057   96.2049   59.8302 C   0  0  0  0  0  0  0  0  0  0  0  0
   13.1335   97.2519   59.2263 C   0  0  0  0  0  0  0  0  0  0  0  0
   13.5983   98.6721   59.4680 C   0  0  0  0  0  0  0  0  0  0  0  0
   12.8102   99.6549   58.7929 N   0  0  0  0  0  0  0  0  0  0  0  0
   11.7030  100.1105   59.3962 C   0  0  0  0  0  0  0  0  0  0  0  0
   11.1851   99.6854   60.7000 C   0  0  0  0  0  0  0  0  0  0  0  0
   10.9617  101.0776   58.7333 C   0  0  0  0  0  0  0  0  0  0  0  0
   11.2880  101.5952   57.5050 C   0  0  0  0  0  0  0  0  0  0  0  0
   10.6093  102.4724   56.9114 O   0  0  0  0  0  0  0  0  0  0  0  0
   12.4233  101.1130   56.9108 C   0  0  0  0  0  0  0  0  0  0  0  0
   12.8105  101.5991   55.6593 O   0  0  0  0  0  0  0  0  0  0  0  0
   13.1729  100.1358   57.5803 C   0  0  0  0  0  0  0  0  0  0  0  0
   14.3914   99.6974   56.8610 C   0  0  0  0  0  0  0  0  0  0  0  0
   14.5216  100.3617   55.5786 N   0  0  0  0  0  0  0  0  0  0  0  0
   14.9952   99.6364   54.4641 C   0  0  0  0  0  0  0  0  0  0  0  0
   15.2067   98.4053   54.6190 O   0  0  0  0  0  0  0  0  0  0  0  0
   15.2402  100.3105   53.1365 C   0  0  0  0  0  0  0  0  0  0  0  0
   14.8358   99.4340   51.9968 C   0  0  0  0  0  0  0  0  0  0  0  0
  1  2  1  0
  2  3  1  0
  3  4  1  0
  4  5  1  0
  5  6  1  0
  5  7  2  0
  7  8  1  0
  8  9  2  0
  8 10  1  0
 10 11  1  0
 10 12  2  0
 12 13  1  0
 13 14  1  0
 14 15  1  0
 15 16  2  0
 15 17  1  0
 17 18  1  0
 12  4  1  0
M  END
$$$$
