
     RDKit          3D

 30 32  0  0  0  0  0  0  0  0999 V2000
   14.5368   60.1899    9.2712 C   0  0  0  0  0  0  0  0  0  0  0  0
   14.7703   58.8119    9.0599 O   0  0  0  0  0  0  0  0  0  0  0  0
   15.0253   57.9509   10.1137 C   0  0  0  0  0  0  0  0  0  0  0  0
   15.2578   56.6060    9.9538 C   0  0  0  0  0  0  0  0  0  0  0  0
   15.5107   55.7773   11.0447 C   0  0  0  0  0  0  0  0  0  0  0  0
   15.5352   56.2941   12.3434 C   0  0  0  0  0  0  0  0  0  0  0  0
   15.7962   55.4433   13.4525 N   0  0  0  0  0  0  0  0  0  0  0  0
   17.1275   55.1833   13.9729 C   0  0  0  0  0  0  0  0  0  0  0  0
   16.9696   54.2783   15.1452 C   0  0  0  0  0  0  0  0  0  0  0  0
   15.5439   54.0943   15.3617 N   0  0  0  0  0  0  0  0  0  0  0  0
   14.9128   53.4126   16.4995 C   0  0  0  0  0  0  0  0  0  0  0  0
   14.7700   51.9643   16.1456 C   0  0  0  0  0  0  0  0  0  0  0  0
   16.0360   51.3424   15.8629 N   0  0  0  0  0  0  0  0  0  0  0  0
   16.8523   51.2268   17.0262 C   0  0  0  0  0  0  0  0  0  0  0  0
   16.3832   50.2204   18.0144 C   0  0  0  0  0  0  0  0  0  0  0  0
   15.4922   49.2117   17.5116 N   0  0  0  0  0  0  0  0  0  0  0  0
   15.1079   48.1345   18.3942 C   0  0  0  0  0  0  0  0  0  0  0  0
   14.2306   47.1425   18.0275 C   0  0  0  0  0  0  0  0  0  0  0  0
   13.8989   46.1251   18.9277 C   0  0  0  0  0  0  0  0  0  0  0  0
   14.4326   46.0816   20.1978 C   0  0  0  0  0  0  0  0  0  0  0  0
   15.3129   47.0800   20.5614 C   0  0  0  0  0  0  0  0  0  0  0  0
   16.0186   47.0672   22.1698 Cl  0  0  0  0  0  0  0  0  0  0  0  0
   15.6474   48.0886   19.6815 C   0  0  0  0  0  0  0  0  0  0  0  0
   14.9810   49.2380   16.1896 C   0  0  0  0  0  0  0  0  0  0  0  0
   15.7961   50.0661   15.2272 C   0  0  0  0  0  0  0  0  0  0  0  0
   14.8986   54.7031   14.2546 C   0  0  0  0  0  0  0  0  0  0  0  0
   13.6688   54.6121   13.9915 O   0  0  0  0  0  0  0  0  0  0  0  0
   15.3001   57.6396   12.4780 C   0  0  0  0  0  0  0  0  0  0  0  0
   15.0506   58.4551   11.3963 C   0  0  0  0  0  0  0  0  0  0  0  0
   15.2141   53.3202   14.7761 Cl  0  0  0  0  0  0  0  0  0  0  0  0
  1  2  1  0
  2  3  1  0
  3  4  2  0
  4  5  1  0
  5  6  2  0
  6  7  1  0
  7  8  1  0
  8  9  1  0
  9 10  1  0
 10 11  1  0
 11 12  1  0
 12 13  1  0
 13 14  1  0
 14 15  1  0
 15 16  1  0
 16 17  1  0
 17 18  2  0
 18 19  1  0
 19 20  2  0
 20 21  1  0
 21 22  1  0
 21 23  2  0
 16 24  1  0
 24 25  1  0
 10 26  1  0
 26 27  2  0
  6 28  1  0
 28 29  2  0
 29  3  1  0
 26  7  1  0
 25 13  1  0
 23 17  1  0
M  END
$$$$
