
     RDKit          3D

 26 29  0  0  0  0  0  0  0  0999 V2000
   14.7405   99.3894   51.6362 C   0  0  0  0  0  0  0  0  0  0  0  0
   15.3674   99.9307   52.8547 C   0  0  0  0  0  0  0  0  0  0  0  0
   16.5645  100.5768   52.8398 C   0  0  0  0  0  0  0  0  0  0  0  0
   17.1443  101.0906   53.9786 C   0  0  0  0  0  0  0  0  0  0  0  0
   16.4910  100.9394   55.1378 N   0  0  0  0  0  0  0  0  0  0  0  0
   15.2955  100.3073   55.2297 C   0  0  0  0  0  0  0  0  0  0  0  0
   14.6075  100.1782   56.4657 N   0  0  0  0  0  0  0  0  0  0  0  0
   13.5390   99.2469   56.5303 C   0  0  0  0  0  0  0  0  0  0  0  0
   13.1175   98.6891   55.4907 O   0  0  0  0  0  0  0  0  0  0  0  0
   12.9196   98.9295   57.7985 C   0  0  0  0  0  0  0  0  0  0  0  0
   13.2915   97.7915   58.4918 C   0  0  0  0  0  0  0  0  0  0  0  0
   12.7176   97.4430   59.6946 C   0  0  0  0  0  0  0  0  0  0  0  0
   13.1558   96.2192   60.3977 C   0  0  0  0  0  0  0  0  0  0  0  0
   12.4648   95.5242   61.3476 C   0  0  0  0  0  0  0  0  0  0  0  0
   13.2704   94.4472   61.7218 C   0  0  0  0  0  0  0  0  0  0  0  0
   14.4222   94.5492   60.9672 C   0  0  0  0  0  0  0  0  0  0  0  0
   14.2948   95.6042   60.2137 O   0  0  0  0  0  0  0  0  0  0  0  0
   11.7797   98.2311   60.1921 N   0  0  0  0  0  0  0  0  0  0  0  0
   11.3904   99.3542   59.5372 C   0  0  0  0  0  0  0  0  0  0  0  0
   10.4178  100.1786   60.0457 C   0  0  0  0  0  0  0  0  0  0  0  0
    9.9987  101.3258   59.4186 C   0  0  0  0  0  0  0  0  0  0  0  0
   10.5533  101.7033   58.2243 C   0  0  0  0  0  0  0  0  0  0  0  0
   10.0293  103.1524   57.4227 Cl  0  0  0  0  0  0  0  0  0  0  0  0
   11.5306  100.8888   57.6919 C   0  0  0  0  0  0  0  0  0  0  0  0
   11.9459   99.7405   58.3245 C   0  0  0  0  0  0  0  0  0  0  0  0
   14.7286   99.7997   54.0842 C   0  0  0  0  0  0  0  0  0  0  0  0
  1  2  1  0
  2  3  2  0
  3  4  1  0
  4  5  2  0
  5  6  1  0
  6  7  1  0
  7  8  1  0
  8  9  2  0
  8 10  1  0
 10 11  2  0
 11 12  1  0
 12 13  1  0
 13 14  2  0
 14 15  1  0
 15 16  2  0
 16 17  1  0
 12 18  2  0
 18 19  1  0
 19 20  2  0
 20 21  1  0
 21 22  2  0
 22 23  1  0
 22 24  1  0
 24 25  2  0
  6 26  2  0
 26  2  1  0
 25 10  1  0
 17 13  1  0
 25 19  1  0
M  END
$$$$
