
     RDKit          3D

 34 38  0  0  0  0  0  0  0  0999 V2000
   16.4482   65.6148   18.1085 C   0  0  0  0  0  0  0  0  0  0  0  0
   15.6121   65.7824   16.9415 N   0  0  0  0  0  0  0  0  0  0  0  0
   14.3471   65.1192   17.1407 C   0  0  0  0  0  0  0  0  0  0  0  0
   14.3535   63.7503   16.5536 C   0  0  0  0  0  0  0  0  0  0  0  0
   14.2631   62.7661   17.3145 O   0  0  0  0  0  0  0  0  0  0  0  0
   14.4591   63.5555   15.1665 N   0  0  0  0  0  0  0  0  0  0  0  0
   15.3126   64.4188   14.3500 C   0  0  0  0  0  0  0  0  0  0  0  0
   16.3975   63.6679   13.6525 C   0  0  0  0  0  0  0  0  0  0  0  0
   15.9379   62.2705   13.3956 C   0  0  0  0  0  0  0  0  0  0  0  0
   14.4309   62.1665   13.2318 C   0  0  1  0  0  0  0  0  0  0  0  0
   14.1289   60.7811   12.8403 N   0  0  0  0  0  0  0  0  0  0  0  0
   14.8579   59.7165   13.0942 N   0  0  0  0  0  0  0  0  0  0  0  0
   14.2847   58.5966   12.5907 C   0  0  0  0  0  0  0  0  0  0  0  0
   14.8605   57.2494   12.6924 C   0  0  0  0  0  0  0  0  0  0  0  0
   15.6429   56.7382   11.6638 C   0  0  0  0  0  0  0  0  0  0  0  0
   16.2308   55.4996   11.7122 C   0  0  0  0  0  0  0  0  0  0  0  0
   16.0557   54.6888   12.8324 C   0  0  0  0  0  0  0  0  0  0  0  0
   16.6633   53.4464   12.8437 O   0  0  0  0  0  0  0  0  0  0  0  0
   16.4373   52.6025   13.9056 C   0  0  0  0  0  0  0  0  0  0  0  0
   17.2120   51.4834   14.0684 C   0  0  0  0  0  0  0  0  0  0  0  0
   16.9761   50.6303   15.1499 C   0  0  0  0  0  0  0  0  0  0  0  0
   15.9551   50.9646   16.0160 C   0  0  0  0  0  0  0  0  0  0  0  0
   15.1726   52.1041   15.8430 C   0  0  0  0  0  0  0  0  0  0  0  0
   15.4128   52.9328   14.7797 C   0  0  0  0  0  0  0  0  0  0  0  0
   15.2840   55.1849   13.8561 C   0  0  0  0  0  0  0  0  0  0  0  0
   14.6964   56.4412   13.7905 C   0  0  0  0  0  0  0  0  0  0  0  0
   13.1279   58.9627   11.9807 C   0  0  0  0  0  0  0  0  0  0  0  0
   12.1413   58.2860   11.2963 C   0  0  0  0  0  0  0  0  0  0  0  0
   12.2052   56.8901   11.0870 N   0  0  0  0  0  0  0  0  0  0  0  0
   11.1093   58.9933   10.8048 N   0  0  0  0  0  0  0  0  0  0  0  0
   11.0227   60.3199   10.9634 C   0  0  0  0  0  0  0  0  0  0  0  0
   11.9838   60.9845   11.6293 N   0  0  0  0  0  0  0  0  0  0  0  0
   13.0517   60.3506   12.1532 C   0  0  0  0  0  0  0  0  0  0  0  0
   13.7232   62.4908   14.5111 C   0  0  0  0  0  0  0  0  0  0  0  0
  1  2  1  0
  2  3  1  0
  3  4  1  0
  4  5  2  0
  4  6  1  0
  6  7  1  0
  7  8  1  0
  8  9  1  0
  9 10  1  0
 10 11  1  1
 11 12  1  0
 12 13  2  0
 13 14  1  0
 14 15  2  0
 15 16  1  0
 16 17  2  0
 17 18  1  0
 18 19  1  0
 19 20  2  0
 20 21  1  0
 21 22  2  0
 22 23  1  0
 23 24  2  0
 17 25  1  0
 25 26  2  0
 13 27  1  0
 27 28  2  0
 28 29  1  0
 28 30  1  0
 30 31  2  0
 31 32  1  0
 32 33  2  0
 10 34  1  0
 34  6  1  0
 33 11  1  0
 26 14  1  0
 33 27  1  0
 24 19  1  0
M  END
$$$$
