
     RDKit          3D

 32 35  0  0  0  0  0  0  0  0999 V2000
   -1.9463   72.2924   31.7718 N   0  0  0  0  0  0  0  0  0  0  0  0
   -2.2941   71.1875   31.7861 C   0  0  0  0  0  0  0  0  0  0  0  0
   -2.7095   69.8131   31.8228 C   0  0  0  0  0  0  0  0  0  0  0  0
   -1.7656   68.8171   32.0074 C   0  0  0  0  0  0  0  0  0  0  0  0
   -2.1290   67.4772   32.0486 C   0  0  0  0  0  0  0  0  0  0  0  0
   -3.4459   67.0934   31.9066 C   0  0  0  0  0  0  0  0  0  0  0  0
   -3.7967   65.7025   31.9530 N   0  0  0  0  0  0  0  0  0  0  0  0
   -5.1460   65.3103   32.2334 C   0  0  0  0  0  0  0  0  0  0  0  0
   -5.9727   66.1696   32.6267 O   0  0  0  0  0  0  0  0  0  0  0  0
   -5.6050   63.9739   32.0863 N   0  0  0  0  0  0  0  0  0  0  0  0
   -6.1232   63.4517   30.8478 C   0  0  0  0  0  0  0  0  0  0  0  0
   -7.5747   63.2084   30.9699 C   0  0  0  0  0  0  0  0  0  0  0  0
   -8.5400   64.0446   31.0333 O   0  0  0  0  0  0  0  0  0  0  0  0
   -7.4322   61.8165   30.9831 N   0  0  0  0  0  0  0  0  0  0  0  0
   -8.2343   60.6809   31.2062 C   0  0  0  0  0  0  0  0  0  0  0  0
   -8.8451   60.3932   32.4051 C   0  0  0  0  0  0  0  0  0  0  0  0
   -9.6317   59.2601   32.5823 C   0  0  0  0  0  0  0  0  0  0  0  0
   -9.8026   58.4081   31.5358 C   0  0  0  0  0  0  0  0  0  0  0  0
  -10.5622   57.2944   31.6726 F   0  0  0  0  0  0  0  0  0  0  0  0
   -9.2073   58.6558   30.3090 C   0  0  0  0  0  0  0  0  0  0  0  0
   -8.4319   59.7835   30.1532 C   0  0  0  0  0  0  0  0  0  0  0  0
   -6.0121   61.9814   30.6498 C   0  0  0  0  0  0  0  0  0  0  0  0
   -5.1581   61.2341   31.5521 C   0  0  0  0  0  0  0  0  0  0  0  0
   -3.8819   61.1557   31.6860 C   0  0  0  0  0  0  0  0  0  0  0  0
   -2.9004   60.2407   31.1387 C   0  0  0  0  0  0  0  0  0  0  0  0
   -1.8169   60.6139   30.3987 C   0  0  0  0  0  0  0  0  0  0  0  0
   -0.9150   59.6528   29.9000 C   0  0  0  0  0  0  0  0  0  0  0  0
   -1.0764   58.3257   30.1277 C   0  0  0  0  0  0  0  0  0  0  0  0
   -2.1624   57.9312   30.8716 C   0  0  0  0  0  0  0  0  0  0  0  0
   -3.0355   58.8647   31.3540 C   0  0  0  0  0  0  0  0  0  0  0  0
   -4.3864   68.0835   31.7228 C   0  0  0  0  0  0  0  0  0  0  0  0
   -4.0234   69.4155   31.6820 C   0  0  0  0  0  0  0  0  0  0  0  0
  1  2  3  0
  2  3  1  0
  3  4  2  0
  4  5  1  0
  5  6  2  0
  6  7  1  0
  7  8  1  0
  8  9  2  0
  8 10  1  0
 10 11  1  0
 11 12  1  0
 12 13  2  0
 12 14  1  0
 14 15  1  0
 15 16  2  0
 16 17  1  0
 17 18  2  0
 18 19  1  0
 18 20  1  0
 20 21  2  0
 14 22  1  0
 22 23  1  0
 23 24  2  3
 24 25  1  0
 25 26  2  0
 26 27  1  0
 27 28  2  0
 28 29  1  0
 29 30  2  0
  6 31  1  0
 31 32  2  0
 32  3  1  0
 22 11  1  0
 30 25  1  0
 21 15  1  0
M  END
$$$$
