
     RDKit          3D

 20 20  0  0  0  0  0  0  0  0999 V2000
   35.1915   81.7381   51.0973 Br  0  0  0  0  0  0  0  0  0  0  0  0
   37.3865   79.9277   51.3601 C   0  0  0  0  0  0  0  0  0  0  0  0
   37.6811   81.1381   51.7456 C   0  0  0  0  0  0  0  0  0  0  0  0
   38.9370   81.3370   52.5604 C   0  0  0  0  0  0  0  0  0  0  0  0
   36.9367   82.3848   51.4719 C   0  0  0  0  0  0  0  0  0  0  0  0
   35.7691   82.2302   50.6477 N   0  0  0  0  0  0  0  0  0  0  0  0
   36.0066   81.9406   49.2499 C   0  0  0  0  0  0  0  0  0  0  0  0
   34.8198   81.6051   48.4406 C   0  0  0  0  0  0  0  0  0  0  0  0
   33.5190   81.6869   49.0984 C   0  0  0  0  0  0  0  0  0  0  0  0
   32.5020   81.3874   48.4137 O   0  0  0  0  0  0  0  0  0  0  0  0
   33.3226   82.0747   50.4367 N   0  0  0  0  0  0  0  0  0  0  0  0
   32.0199   82.1992   51.0233 C   0  0  0  0  0  0  0  0  0  0  0  0
   31.3877   81.1511   51.6604 C   0  0  0  0  0  0  0  0  0  0  0  0
   30.1291   81.2920   52.2211 C   0  0  0  0  0  0  0  0  0  0  0  0
   29.4490   82.4896   52.1687 C   0  0  0  0  0  0  0  0  0  0  0  0
   28.2089   82.6349   52.7179 F   0  0  0  0  0  0  0  0  0  0  0  0
   30.0793   83.5410   51.5314 C   0  0  0  0  0  0  0  0  0  0  0  0
   31.3339   83.3965   50.9735 C   0  0  0  0  0  0  0  0  0  0  0  0
   34.4935   82.3539   51.2311 C   0  0  0  0  0  0  0  0  0  0  0  0
   34.2545   82.6955   52.4434 N   0  0  0  0  0  0  0  0  0  0  0  0
  2  3  2  0
  3  4  1  0
  3  5  1  0
  5  6  1  0
  6  7  1  0
  7  8  1  0
  8  9  1  0
  9 10  2  0
  9 11  1  0
 11 12  1  0
 12 13  2  0
 13 14  1  0
 14 15  2  0
 15 16  1  0
 15 17  1  0
 17 18  2  0
 11 19  1  0
 19 20  2  0
 19  6  1  0
 18 12  1  0
M  END
$$$$
