
     RDKit          3D

 34 39  0  0  0  0  0  0  0  0999 V2000
   15.5931   58.8988   14.7043 C   0  0  0  0  0  0  0  0  0  0  0  0
   14.6021   57.8917   14.2339 C   0  0  0  0  0  0  0  0  0  0  0  0
   13.6738   58.5218   13.2766 C   0  0  0  0  0  0  0  0  0  0  0  0
   13.6941   59.8656   13.2176 N   0  0  0  0  0  0  0  0  0  0  0  0
   12.8954   60.5279   12.3919 C   0  0  0  0  0  0  0  0  0  0  0  0
   12.0366   59.8061   11.5884 C   0  0  0  0  0  0  0  0  0  0  0  0
   11.3529   60.7687   10.8585 C   0  0  0  0  0  0  0  0  0  0  0  0
   11.7957   61.9948   11.2227 N   0  0  0  0  0  0  0  0  0  0  0  0
   12.7282   61.8579   12.1493 N   0  0  0  0  0  0  0  0  0  0  0  0
   13.4374   62.9223   12.7853 C   0  0  0  0  0  0  0  0  0  0  0  0
   13.2378   62.9538   14.2997 C   0  0  0  0  0  0  0  0  0  0  0  0
   14.4429   63.7187   14.8178 C   0  0  0  0  0  0  0  0  0  0  0  0
   15.3757   63.9151   13.6477 C   0  0  0  0  0  0  0  0  0  0  0  0
   14.9423   62.7810   12.7090 C   0  0  0  0  0  0  0  0  0  0  0  0
   12.0177   58.4339   11.6504 C   0  0  0  0  0  0  0  0  0  0  0  0
   11.2386   57.7800   10.9214 O   0  0  0  0  0  0  0  0  0  0  0  0
   12.8401   57.8126   12.4974 N   0  0  0  0  0  0  0  0  0  0  0  0
   15.1695   56.6422   13.7782 N   0  0  0  0  0  0  0  0  0  0  0  0
   14.2366   55.6358   13.3967 C   0  0  0  0  0  0  0  0  0  0  0  0
   14.6143   54.7145   14.5540 C   0  0  0  0  0  0  0  0  0  0  0  0
   15.0259   53.5015   14.1761 O   0  0  0  0  0  0  0  0  0  0  0  0
   15.5852   52.3679   14.6311 C   0  0  0  0  0  0  0  0  0  0  0  0
   14.9022   51.6021   15.5953 C   0  0  0  0  0  0  0  0  0  0  0  0
   15.3923   50.4368   16.1156 C   0  0  0  0  0  0  0  0  0  0  0  0
   14.6307   49.7648   17.0623 O   0  0  0  0  0  0  0  0  0  0  0  0
   14.7813   49.8405   18.4340 C   0  0  0  0  0  0  0  0  0  0  0  0
   13.7222   49.2299   19.3310 C   0  0  0  0  0  0  0  0  0  0  0  0
   15.0197   48.5320   19.1434 C   0  0  0  0  0  0  0  0  0  0  0  0
   16.6212   49.9589   15.6928 C   0  0  0  0  0  0  0  0  0  0  0  0
   17.2984   50.6823   14.7623 C   0  0  0  0  0  0  0  0  0  0  0  0
   16.8030   51.8696   14.2295 C   0  0  0  0  0  0  0  0  0  0  0  0
   17.6362   52.5163   13.2576 C   0  0  0  0  0  0  0  0  0  0  0  0
   18.2982   53.0187   12.4683 N   0  0  0  0  0  0  0  0  0  0  0  0
   15.6785   55.7804   14.7971 C   0  0  0  0  0  0  0  0  0  0  0  0
  1  2  1  0
  2  3  1  0
  3  4  2  0
  4  5  1  0
  5  6  2  0
  6  7  1  0
  7  8  2  0
  8  9  1  0
  9 10  1  0
 10 11  1  0
 11 12  1  0
 12 13  1  0
 13 14  1  0
  6 15  1  0
 15 16  2  0
 15 17  1  0
  2 18  1  0
 18 19  1  0
 19 20  1  0
 20 21  1  0
 21 22  1  0
 22 23  2  0
 23 24  1  0
 24 25  1  0
 25 26  1  0
 26 27  1  0
 27 28  1  0
 24 29  2  0
 29 30  1  0
 30 31  2  0
 31 32  1  0
 32 33  3  0
 20 34  1  0
 17  3  1  0
 34 18  1  0
  9  5  1  0
 14 10  1  0
 31 22  1  0
 28 26  1  0
M  END
$$$$
