
     RDKit          3D

 27 31  0  0  0  0  0  0  0  0999 V2000
   14.5684   93.0635   64.5549 C   0  0  0  0  0  0  0  0  0  0  0  0
   13.4283   93.8605   64.5170 O   0  0  0  0  0  0  0  0  0  0  0  0
   13.1050   94.7239   63.4819 C   0  0  0  0  0  0  0  0  0  0  0  0
   14.0220   95.2139   62.5780 C   0  0  0  0  0  0  0  0  0  0  0  0
   13.6433   96.0818   61.5529 C   0  0  0  0  0  0  0  0  0  0  0  0
   12.3376   96.4778   61.4085 C   0  0  0  0  0  0  0  0  0  0  0  0
   11.4039   95.9983   62.3050 C   0  0  0  0  0  0  0  0  0  0  0  0
   11.7964   95.1348   63.3215 C   0  0  0  0  0  0  0  0  0  0  0  0
   10.8335   94.6633   64.2159 O   0  0  0  0  0  0  0  0  0  0  0  0
    9.5359   94.3235   63.7568 C   0  0  0  0  0  0  0  0  0  0  0  0
   11.9034   97.3482   60.3203 C   0  0  0  0  0  0  0  0  0  0  0  0
   10.6001   97.7558   60.2809 N   0  0  0  0  0  0  0  0  0  0  0  0
   10.1594   98.5965   59.3537 C   0  0  0  0  0  0  0  0  0  0  0  0
   11.0860   99.0451   58.4214 C   0  0  0  0  0  0  0  0  0  0  0  0
   10.8891   99.9244   57.3843 C   0  0  0  0  0  0  0  0  0  0  0  0
   12.1300  100.0571   56.7598 C   0  0  0  0  0  0  0  0  0  0  0  0
   13.0433   99.2818   57.3982 N   0  0  0  0  0  0  0  0  0  0  0  0
   12.4115   98.6604   58.4190 C   0  0  0  0  0  0  0  0  0  0  0  0
   12.8493   97.7802   59.3979 C   0  0  0  0  0  0  0  0  0  0  0  0
   14.2380   97.3188   59.4164 C   0  0  0  0  0  0  0  0  0  0  0  0
   14.5635   96.6297   60.6429 N   0  0  0  0  0  0  0  0  0  0  0  0
   14.4471   99.1095   57.0737 C   0  0  0  0  0  0  0  0  0  0  0  0
   14.7085   99.4593   55.6231 C   0  0  0  0  0  0  0  0  0  0  0  0
   14.8433  100.9491   55.3792 C   0  0  0  0  0  0  0  0  0  0  0  0
   13.5218  101.5204   55.1305 N   0  0  0  0  0  0  0  0  0  0  0  0
   12.3226  100.9428   55.6306 C   0  0  0  0  0  0  0  0  0  0  0  0
   11.2807  101.2636   54.9802 O   0  0  0  0  0  0  0  0  0  0  0  0
  1  2  1  0
  2  3  1  0
  3  4  2  0
  4  5  1  0
  5  6  2  0
  6  7  1  0
  7  8  2  0
  8  9  1  0
  9 10  1  0
  6 11  1  0
 11 12  2  0
 12 13  1  0
 13 14  2  0
 14 15  1  0
 15 16  2  0
 16 17  1  0
 17 18  1  0
 18 19  2  0
 19 20  1  0
 20 21  1  0
 17 22  1  0
 22 23  1  0
 23 24  1  0
 24 25  1  0
 25 26  1  0
 26 27  2  0
  8  3  1  0
 19 11  1  0
 21  5  1  0
 18 14  1  0
 26 16  1  0
M  END
$$$$
