
     RDKit          3D

 28 30  0  0  0  0  0  0  0  0999 V2000
  -13.5914   55.4212   28.5513 C   0  0  0  0  0  0  0  0  0  0  0  0
  -13.4440   56.7467   28.0893 O   0  0  0  0  0  0  0  0  0  0  0  0
  -12.5572   57.5842   28.7771 C   0  0  0  0  0  0  0  0  0  0  0  0
  -12.4389   58.9175   28.4660 C   0  0  0  0  0  0  0  0  0  0  0  0
  -11.5497   59.6722   29.1836 C   0  0  0  0  0  0  0  0  0  0  0  0
  -10.7778   59.1580   30.1921 C   0  0  0  0  0  0  0  0  0  0  0  0
   -9.8386   59.8922   30.9712 C   0  0  0  0  0  0  0  0  0  0  0  0
   -9.7553   61.1561   31.0739 C   0  0  0  0  0  0  0  0  0  0  0  0
  -10.9563   61.9643   30.6603 C   0  0  0  0  0  0  0  0  0  0  0  0
  -11.8657   62.5804   30.3619 N   0  0  0  0  0  0  0  0  0  0  0  0
   -8.6760   61.8994   31.6627 C   0  0  0  0  0  0  0  0  0  0  0  0
   -8.9705   63.1735   31.8270 O   0  0  0  0  0  0  0  0  0  0  0  0
   -7.4180   61.4825   32.0737 N   0  0  0  0  0  0  0  0  0  0  0  0
   -6.4624   62.4742   32.5853 C   0  0  0  0  0  0  0  0  0  0  0  0
   -5.5109   62.8256   31.4935 C   0  0  0  0  0  0  0  0  0  0  0  0
   -4.2519   62.0445   31.5578 C   0  0  0  0  0  0  0  0  0  0  0  0
   -3.1720   62.4212   32.3229 C   0  0  0  0  0  0  0  0  0  0  0  0
   -2.0058   61.6740   32.3666 C   0  0  0  0  0  0  0  0  0  0  0  0
   -1.9296   60.5194   31.6201 C   0  0  0  0  0  0  0  0  0  0  0  0
   -2.9991   60.1255   30.8489 C   0  0  0  0  0  0  0  0  0  0  0  0
   -4.1453   60.8891   30.8254 C   0  0  0  0  0  0  0  0  0  0  0  0
   -2.6070   58.9346   30.2276 O   0  0  0  0  0  0  0  0  0  0  0  0
   -1.1881   58.8242   30.2950 C   0  0  0  0  0  0  0  0  0  0  0  0
   -0.9008   59.5715   31.4634 O   0  0  0  0  0  0  0  0  0  0  0  0
  -10.9145   57.7872   30.4957 C   0  0  0  0  0  0  0  0  0  0  0  0
  -10.2157   57.2136   31.4453 O   0  0  0  0  0  0  0  0  0  0  0  0
   -9.5664   56.5682   32.3493 C   0  0  0  0  0  0  0  0  0  0  0  0
  -11.8214   57.0259   29.7612 C   0  0  0  0  0  0  0  0  0  0  0  0
  1  2  1  0
  2  3  1  0
  3  4  2  0
  4  5  1  0
  5  6  2  0
  6  7  1  0
  7  8  2  0
  8  9  1  0
  9 10  3  0
  8 11  1  0
 11 12  2  0
 11 13  1  0
 13 14  1  0
 14 15  1  0
 15 16  1  0
 16 17  2  0
 17 18  1  0
 18 19  2  0
 19 20  1  0
 20 21  2  0
 20 22  1  0
 22 23  1  0
 23 24  1  0
  6 25  1  0
 25 26  1  0
 26 27  1  0
 25 28  2  0
 28  3  1  0
 21 16  1  0
 24 19  1  0
M  END
$$$$
