
     RDKit          3D

 24 26  0  0  0  0  0  0  0  0999 V2000
   11.1017   89.7530   64.2121 C   0  0  0  0  0  0  0  0  0  0  0  0
   10.5118   91.0976   64.0524 C   0  0  0  0  0  0  0  0  0  0  0  0
    9.2359   91.4265   64.3181 N   0  0  0  0  0  0  0  0  0  0  0  0
    9.0627   92.6987   64.0623 O   0  0  0  0  0  0  0  0  0  0  0  0
   10.1736   93.2303   63.6363 C   0  0  0  0  0  0  0  0  0  0  0  0
   10.4851   94.6090   63.2240 C   0  0  0  0  0  0  0  0  0  0  0  0
   11.8695   94.8235   63.0473 O   0  0  0  0  0  0  0  0  0  0  0  0
   12.0692   94.6624   61.6610 C   0  0  0  0  0  0  0  0  0  0  0  0
   11.9961   95.9110   60.9149 C   0  0  0  0  0  0  0  0  0  0  0  0
   10.8788   96.6008   60.6350 N   0  0  0  0  0  0  0  0  0  0  0  0
   11.2248   97.6770   59.9424 N   0  0  0  0  0  0  0  0  0  0  0  0
   12.5565   97.6932   59.7699 C   0  0  0  0  0  0  0  0  0  0  0  0
   13.4695   98.9469   58.9013 S   0  0  0  0  0  0  0  0  0  0  0  0
   12.5068   99.4318   57.4268 C   0  0  0  0  0  0  0  0  0  0  0  0
   13.3874  100.1726   56.5043 C   0  0  0  0  0  0  0  0  0  0  0  0
   14.0072  101.3326   56.9228 C   0  0  0  0  0  0  0  0  0  0  0  0
   14.8336  102.0344   56.0711 C   0  0  0  0  0  0  0  0  0  0  0  0
   15.0668  101.6060   54.7856 C   0  0  0  0  0  0  0  0  0  0  0  0
   16.1102  102.4850   53.6988 Cl  0  0  0  0  0  0  0  0  0  0  0  0
   14.4532  100.4442   54.3490 C   0  0  0  0  0  0  0  0  0  0  0  0
   13.6373   99.7639   55.2102 C   0  0  0  0  0  0  0  0  0  0  0  0
   13.0266   96.5826   60.3832 N   0  0  0  0  0  0  0  0  0  0  0  0
   14.3529   96.2064   60.4479 N   0  0  0  0  0  0  0  0  0  0  0  0
   11.0893   92.2311   63.6271 N   0  0  0  0  0  0  0  0  0  0  0  0
  1  2  1  0
  2  3  2  0
  3  4  1  0
  4  5  1  0
  5  6  1  0
  6  7  1  0
  7  8  1  0
  8  9  1  0
  9 10  2  0
 10 11  1  0
 11 12  2  0
 12 13  1  0
 13 14  1  0
 14 15  1  0
 15 16  2  0
 16 17  1  0
 17 18  2  0
 18 19  1  0
 18 20  1  0
 20 21  2  0
 12 22  1  0
 22 23  1  0
  5 24  2  0
 24  2  1  0
 22  9  1  0
 21 15  1  0
M  END
$$$$
