
     RDKit          3D

 26 29  0  0  0  0  0  0  0  0999 V2000
   12.1798   56.3644   14.3120 C   0  0  0  0  0  0  0  0  0  0  0  0
   13.5461   56.2837   13.9573 O   0  0  0  0  0  0  0  0  0  0  0  0
   14.0905   57.3724   13.2709 C   0  0  0  0  0  0  0  0  0  0  0  0
   13.3992   58.5584   13.0939 C   0  0  0  0  0  0  0  0  0  0  0  0
   13.9882   59.5959   12.4086 C   0  0  0  0  0  0  0  0  0  0  0  0
   15.2607   59.4330   11.9097 C   0  0  0  0  0  0  0  0  0  0  0  0
   15.9489   58.2576   12.0837 C   0  0  0  0  0  0  0  0  0  0  0  0
   15.3727   57.2080   12.7683 C   0  0  0  0  0  0  0  0  0  0  0  0
   16.0821   55.9500   12.9666 C   0  0  0  0  0  0  0  0  0  0  0  0
   17.2356   55.5546   12.3254 C   0  0  0  0  0  0  0  0  0  0  0  0
   17.5330   54.3380   12.8110 N   0  0  0  0  0  0  0  0  0  0  0  0
   16.6260   53.9488   13.7242 C   0  0  0  0  0  0  0  0  0  0  0  0
   16.6207   52.6896   14.4637 C   0  0  0  0  0  0  0  0  0  0  0  0
   15.4666   51.9792   14.7081 C   0  0  0  0  0  0  0  0  0  0  0  0
   15.5006   50.7752   15.4210 C   0  0  0  0  0  0  0  0  0  0  0  0
   16.7081   50.3003   15.8815 C   0  0  0  0  0  0  0  0  0  0  0  0
   16.7205   49.1136   16.5811 O   0  0  0  0  0  0  0  0  0  0  0  0
   15.7848   48.7435   17.5116 C   0  0  0  0  0  0  0  0  0  0  0  0
   15.8117   47.4551   18.0039 C   0  0  0  0  0  0  0  0  0  0  0  0
   14.8535   47.1187   18.9398 C   0  0  0  0  0  0  0  0  0  0  0  0
   13.9017   48.0187   19.3764 C   0  0  0  0  0  0  0  0  0  0  0  0
   13.8755   49.3074   18.8835 C   0  0  0  0  0  0  0  0  0  0  0  0
   14.8416   49.6558   17.9361 C   0  0  0  0  0  0  0  0  0  0  0  0
   17.8705   50.9945   15.6480 C   0  0  0  0  0  0  0  0  0  0  0  0
   17.8049   52.1699   14.9471 C   0  0  0  0  0  0  0  0  0  0  0  0
   15.7399   54.9575   13.8051 N   0  0  0  0  0  0  0  0  0  0  0  0
  1  2  1  0
  2  3  1  0
  3  4  2  0
  4  5  1  0
  5  6  2  0
  6  7  1  0
  7  8  2  0
  8  9  1  0
  9 10  2  0
 10 11  1  0
 11 12  1  0
 12 13  1  0
 13 14  2  0
 14 15  1  0
 15 16  2  0
 16 17  1  0
 17 18  1  0
 18 19  2  0
 19 20  1  0
 20 21  2  0
 21 22  1  0
 22 23  2  0
 16 24  1  0
 24 25  2  0
 12 26  2  0
  8  3  1  0
 26  9  1  0
 25 13  1  0
 23 18  1  0
M  END
$$$$
