
     RDKit          3D

 27 29  0  0  0  0  0  0  0  0999 V2000
   15.5541   91.4208   61.3971 C   0  0  0  0  0  0  0  0  0  0  0  0
   14.8593   92.1014   62.9247 S   0  0  0  0  0  0  0  0  0  0  0  0
   13.9845   93.6219   62.6489 C   0  0  0  0  0  0  0  0  0  0  0  0
   12.6203   93.6124   62.5502 C   0  0  0  0  0  0  0  0  0  0  0  0
   11.9365   94.7845   62.3369 C   0  0  0  0  0  0  0  0  0  0  0  0
   12.6548   95.9725   62.2241 C   0  0  0  0  0  0  0  0  0  0  0  0
   11.9089   97.1228   62.0092 O   0  0  0  0  0  0  0  0  0  0  0  0
   11.6948   97.6139   60.7293 C   0  0  0  0  0  0  0  0  0  0  0  0
   11.0001   98.7764   60.4699 C   0  0  0  0  0  0  0  0  0  0  0  0
   10.7974   99.2479   59.1991 C   0  0  0  0  0  0  0  0  0  0  0  0
   11.3118   98.5251   58.1462 C   0  0  0  0  0  0  0  0  0  0  0  0
   11.1602   98.9263   56.7569 C   0  0  0  0  0  0  0  0  0  0  0  0
   10.0119   99.3359   56.2884 N   0  0  0  0  0  0  0  0  0  0  0  0
    9.7771   99.3607   54.9490 O   0  0  0  0  0  0  0  0  0  0  0  0
   12.2402   98.9059   55.8160 N   0  0  0  0  0  0  0  0  0  0  0  0
   12.1735   99.5337   54.5394 C   0  0  0  0  0  0  0  0  0  0  0  0
   13.4522  100.2023   54.1412 C   0  0  0  0  0  0  0  0  0  0  0  0
   14.6168   99.5035   54.3189 C   0  0  0  0  0  0  0  0  0  0  0  0
   15.8325  100.0783   53.9585 C   0  0  0  0  0  0  0  0  0  0  0  0
   15.8286  101.3390   53.4314 C   0  0  0  0  0  0  0  0  0  0  0  0
   14.6305  101.9895   53.2773 C   0  0  0  0  0  0  0  0  0  0  0  0
   13.4594  101.4428   53.6215 N   0  0  0  0  0  0  0  0  0  0  0  0
   12.0087   97.3580   58.4159 C   0  0  0  0  0  0  0  0  0  0  0  0
   12.1897   96.9217   59.6881 N   0  0  0  0  0  0  0  0  0  0  0  0
   14.0304   95.9812   62.3237 C   0  0  0  0  0  0  0  0  0  0  0  0
   14.6788   94.7993   62.5358 C   0  0  0  0  0  0  0  0  0  0  0  0
   16.1721   94.8495   62.6383 C   0  0  0  0  0  0  0  0  0  0  0  0
  1  2  1  0
  2  3  1  0
  3  4  2  0
  4  5  1  0
  5  6  2  0
  6  7  1  0
  7  8  1  0
  8  9  2  0
  9 10  1  0
 10 11  2  0
 11 12  1  0
 12 13  2  0
 13 14  1  0
 12 15  1  0
 15 16  1  0
 16 17  1  0
 17 18  2  0
 18 19  1  0
 19 20  2  0
 20 21  1  0
 21 22  2  0
 11 23  1  0
 23 24  2  0
  6 25  1  0
 25 26  2  0
 26 27  1  0
 26  3  1  0
 24  8  1  0
 22 17  1  0
M  END
$$$$
