
     RDKit          3D

 25 27  0  0  0  0  0  0  0  0999 V2000
   18.1216   47.6400   21.6879 C   0  0  0  0  0  0  0  0  0  0  0  0
   16.9088   47.6324   20.9427 O   0  0  0  0  0  0  0  0  0  0  0  0
   16.8200   48.2476   19.7162 N   0  0  0  0  0  0  0  0  0  0  0  0
   15.6687   48.4060   19.1789 C   0  0  0  0  0  0  0  0  0  0  0  0
   14.4012   47.7417   19.5871 C   0  0  0  0  0  0  0  0  0  0  0  0
   13.5331   47.8079   18.3444 C   0  0  0  0  0  0  0  0  0  0  0  0
   14.0639   48.9223   17.5537 C   0  0  0  0  0  0  0  0  0  0  0  0
   13.5358   49.6104   16.4830 C   0  0  0  0  0  0  0  0  0  0  0  0
   14.2739   50.6304   15.9322 C   0  0  0  0  0  0  0  0  0  0  0  0
   15.5325   51.0121   16.3954 C   0  0  0  0  0  0  0  0  0  0  0  0
   16.2532   52.1086   15.7536 C   0  0  0  0  0  0  0  0  0  0  0  0
   17.5315   52.1212   15.8108 O   0  0  0  0  0  0  0  0  0  0  0  0
   15.5978   53.1385   15.0832 N   0  0  0  0  0  0  0  0  0  0  0  0
   16.2194   54.2905   14.5004 C   0  0  0  0  0  0  0  0  0  0  0  0
   15.3303   55.0732   13.6326 C   0  0  0  0  0  0  0  0  0  0  0  0
   15.8019   56.2995   13.1865 C   0  0  0  0  0  0  0  0  0  0  0  0
   17.1466   56.8004   13.5478 C   0  0  0  0  0  0  0  0  0  0  0  0
   14.9717   57.0464   12.3879 C   0  0  0  0  0  0  0  0  0  0  0  0
   13.7073   56.5847   12.0434 C   0  0  0  0  0  0  0  0  0  0  0  0
   12.8038   57.3644   11.1922 C   0  0  0  0  0  0  0  0  0  0  0  0
   13.3072   55.3861   12.5084 N   0  0  0  0  0  0  0  0  0  0  0  0
   14.0741   54.6149   13.2907 C   0  0  0  0  0  0  0  0  0  0  0  0
   13.6210   53.5121   13.6811 O   0  0  0  0  0  0  0  0  0  0  0  0
   16.0293   50.3083   17.4609 C   0  0  0  0  0  0  0  0  0  0  0  0
   15.3026   49.2628   18.0457 C   0  0  0  0  0  0  0  0  0  0  0  0
  1  2  1  0
  2  3  1  0
  3  4  2  0
  4  5  1  0
  5  6  1  0
  6  7  1  0
  7  8  2  0
  8  9  1  0
  9 10  2  0
 10 11  1  0
 11 12  2  0
 11 13  1  0
 13 14  1  0
 14 15  1  0
 15 16  2  0
 16 17  1  0
 16 18  1  0
 18 19  2  0
 19 20  1  0
 19 21  1  0
 21 22  1  0
 22 23  2  0
 10 24  1  0
 24 25  2  0
 25  4  1  0
 25  7  1  0
 22 15  1  0
M  END
$$$$
