
     RDKit          3D

 21 23  0  0  0  0  0  0  0  0999 V2000
   15.1404   53.3451   15.5521 N   0  0  0  0  0  0  0  0  0  0  0  0
   15.7459   53.4303   14.5395 C   0  0  0  0  0  0  0  0  0  0  0  0
   16.4765   53.5584   13.3091 C   0  0  0  0  0  0  0  0  0  0  0  0
   16.8697   52.4156   12.6470 C   0  0  0  0  0  0  0  0  0  0  0  0
   17.5786   52.5142   11.4425 C   0  0  0  0  0  0  0  0  0  0  0  0
   17.8627   53.7691   10.9534 C   0  0  0  0  0  0  0  0  0  0  0  0
   17.4749   54.9436   11.6056 C   0  0  0  0  0  0  0  0  0  0  0  0
   16.7843   54.8097   12.7805 C   0  0  0  0  0  0  0  0  0  0  0  0
   16.3503   56.0213   13.5277 C   0  0  0  0  0  0  0  0  0  0  0  0
   14.9124   56.2066   13.4524 N   0  0  0  0  0  0  0  0  0  0  0  0
   14.4932   55.8331   12.1043 C   0  0  0  0  0  0  0  0  0  0  0  0
   13.2010   56.5119   11.7034 C   0  0  0  0  0  0  0  0  0  0  0  0
   13.5422   57.9668   11.3931 C   0  0  0  0  0  0  0  0  0  0  0  0
   12.3700   58.8437   11.6495 C   0  0  0  0  0  0  0  0  0  0  0  0
   12.4922   60.0916   12.1119 N   0  0  0  0  0  0  0  0  0  0  0  0
   11.2693   60.6067   12.2334 C   0  0  0  0  0  0  0  0  0  0  0  0
   10.9239   61.9056   12.6892 N   0  0  0  0  0  0  0  0  0  0  0  0
   10.4293   59.6359   11.8338 N   0  0  0  0  0  0  0  0  0  0  0  0
   11.1081   58.5998   11.4924 O   0  0  0  0  0  0  0  0  0  0  0  0
   14.7051   58.3494   12.2730 C   0  0  0  0  0  0  0  0  0  0  0  0
   14.5489   57.6032   13.6021 C   0  0  0  0  0  0  0  0  0  0  0  0
  1  2  3  0
  2  3  1  0
  3  4  2  0
  4  5  1  0
  5  6  2  0
  6  7  1  0
  7  8  2  0
  8  9  1  0
  9 10  1  0
 10 11  1  0
 11 12  1  0
 12 13  1  0
 13 14  1  0
 14 15  2  0
 15 16  1  0
 16 17  1  0
 16 18  2  0
 18 19  1  0
 13 20  1  0
 20 21  1  0
  8  3  1  0
 21 10  1  0
 19 14  1  0
M  END
$$$$
