
     RDKit          3D

 22 23  0  0  0  0  0  0  0  0999 V2000
   12.6864   50.1559   19.3374 C   0  0  0  0  0  0  0  0  0  0  0  0
   12.9933   48.8659   18.6187 C   0  0  0  0  0  0  0  0  0  0  0  0
   13.9277   49.1569   17.4866 C   0  0  0  0  0  0  0  0  0  0  0  0
   13.6840   48.1584   16.3499 C   0  0  0  0  0  0  0  0  0  0  0  0
   15.3064   49.1546   17.9097 N   0  0  0  0  0  0  0  0  0  0  0  0
   16.2429   50.0454   17.3222 C   0  0  0  0  0  0  0  0  0  0  0  0
   17.6038   49.9726   17.6352 C   0  0  0  0  0  0  0  0  0  0  0  0
   18.5478   50.8148   17.0924 C   0  0  0  0  0  0  0  0  0  0  0  0
   19.9252   50.7642   17.4057 N   0  0  0  0  0  0  0  0  0  0  0  0
   20.7929   51.9049   17.3289 C   0  0  0  0  0  0  0  0  0  0  0  0
   21.6476   51.9223   16.0831 C   0  0  0  0  0  0  0  0  0  0  0  0
   23.0095   51.8310   16.4173 O   0  0  0  0  0  0  0  0  0  0  0  0
   18.0540   51.7379   16.2147 N   0  0  0  0  0  0  0  0  0  0  0  0
   16.7701   51.8460   15.8857 C   0  0  0  0  0  0  0  0  0  0  0  0
   16.3084   52.8361   14.9576 N   0  0  0  0  0  0  0  0  0  0  0  0
   15.1977   53.5114   14.9417 N   0  0  0  0  0  0  0  0  0  0  0  0
   15.1618   54.3451   13.8879 C   0  0  0  0  0  0  0  0  0  0  0  0
   14.0415   55.2843   13.5377 C   0  0  0  0  0  0  0  0  0  0  0  0
   16.3433   54.1494   13.2265 C   0  0  0  0  0  0  0  0  0  0  0  0
   17.0528   53.2063   13.9008 C   0  0  0  0  0  0  0  0  0  0  0  0
   18.4149   52.6805   13.5287 C   0  0  0  0  0  0  0  0  0  0  0  0
   15.8861   50.9993   16.4439 N   0  0  0  0  0  0  0  0  0  0  0  0
  1  2  1  0
  2  3  1  0
  3  4  1  0
  3  5  1  0
  5  6  1  0
  6  7  2  0
  7  8  1  0
  8  9  1  0
  9 10  1  0
 10 11  1  0
 11 12  1  0
  8 13  2  0
 13 14  1  0
 14 15  1  0
 15 16  1  0
 16 17  2  0
 17 18  1  0
 17 19  1  0
 19 20  2  0
 20 21  1  0
 14 22  2  0
 22  6  1  0
 20 15  1  0
M  END
$$$$
