
     RDKit          3D

 27 30  0  0  0  0  0  0  0  0999 V2000
   12.9148   49.9036   18.2601 C   0  0  0  0  0  0  0  0  0  0  0  0
   13.3684   51.0712   17.5788 O   0  0  0  0  0  0  0  0  0  0  0  0
   14.6798   51.1412   17.1375 C   0  0  0  0  0  0  0  0  0  0  0  0
   15.6628   50.6317   17.9534 C   0  0  0  0  0  0  0  0  0  0  0  0
   16.9693   50.7064   17.5021 C   0  0  0  0  0  0  0  0  0  0  0  0
   17.2466   51.2744   16.2800 C   0  0  0  0  0  0  0  0  0  0  0  0
   16.2579   51.7973   15.4389 C   0  0  0  0  0  0  0  0  0  0  0  0
   16.6220   52.4098   14.1669 C   0  0  0  0  0  0  0  0  0  0  0  0
   17.1502   51.7310   13.0920 C   0  0  0  0  0  0  0  0  0  0  0  0
   17.4648   52.3153   11.9181 N   0  0  0  0  0  0  0  0  0  0  0  0
   17.2788   53.6493   11.7021 C   0  0  0  0  0  0  0  0  0  0  0  0
   17.5011   54.4716   10.6197 C   0  0  0  0  0  0  0  0  0  0  0  0
   17.0887   55.7439   11.0370 C   0  0  0  0  0  0  0  0  0  0  0  0
   16.6556   55.6410   12.2952 N   0  0  0  0  0  0  0  0  0  0  0  0
   16.1468   56.7246   13.1377 C   0  0  0  0  0  0  0  0  0  0  0  0
   14.9500   57.2348   12.4236 C   0  0  0  0  0  0  0  0  0  0  0  0
   14.2102   56.3860   11.8568 O   0  0  0  0  0  0  0  0  0  0  0  0
   14.6978   58.6231   12.4136 N   0  0  0  0  0  0  0  0  0  0  0  0
   15.4786   59.4989   13.2575 C   0  0  0  0  0  0  0  0  0  0  0  0
   14.8420   60.8717   13.3636 C   0  0  0  0  0  0  0  0  0  0  0  0
   13.4554   60.7787   13.2059 O   0  0  0  0  0  0  0  0  0  0  0  0
   13.2626   60.5436   11.8311 C   0  0  0  0  0  0  0  0  0  0  0  0
   13.6341   59.1254   11.5484 C   0  0  0  0  0  0  0  0  0  0  0  0
   16.7523   54.3621   12.7547 C   0  0  0  0  0  0  0  0  0  0  0  0
   16.4280   53.7765   13.9582 C   0  0  0  0  0  0  0  0  0  0  0  0
   14.9698   51.7146   15.8992 C   0  0  0  0  0  0  0  0  0  0  0  0
   13.3894   52.4573   14.7004 I   0  0  0  0  0  0  0  0  0  0  0  0
  1  2  1  0
  2  3  1  0
  3  4  2  0
  4  5  1  0
  5  6  2  0
  6  7  1  0
  7  8  1  0
  8  9  2  0
  9 10  1  0
 10 11  2  0
 11 12  1  0
 12 13  2  0
 13 14  1  0
 14 15  1  0
 15 16  1  0
 16 17  2  0
 16 18  1  0
 18 19  1  0
 19 20  1  0
 20 21  1  0
 21 22  1  0
 22 23  1  0
 14 24  1  0
 24 25  2  0
  7 26  2  0
 26 27  1  0
 26  3  1  0
 25  8  1  0
 24 11  1  0
 23 18  1  0
M  END
$$$$
