
     RDKit          3D

 32 36  0  0  0  0  0  0  0  0999 V2000
   12.1919   98.9953   50.0814 N   0  0  0  0  0  0  0  0  0  0  0  0
   12.4686   97.5825   50.0613 C   0  0  1  0  0  0  0  0  0  0  0  0
   12.2264   97.0229   48.6496 C   0  0  0  0  0  0  0  0  0  0  0  0
   12.4445   95.5513   48.7095 C   0  0  0  0  0  0  0  0  0  0  0  0
   13.8693   95.1853   49.0529 C   0  0  0  0  0  0  0  0  0  0  0  0
   14.3966   95.9466   50.2275 C   0  0  0  0  0  0  0  0  0  0  0  0
   13.9271   97.3527   50.3680 C   0  0  1  0  0  0  0  0  0  0  0  0
   14.7825   98.3131   49.7192 N   0  0  0  0  0  0  0  0  0  0  0  0
   15.3761   99.4146   50.3858 C   0  0  0  0  0  0  0  0  0  0  0  0
   16.2977  100.2681   49.8347 C   0  0  0  0  0  0  0  0  0  0  0  0
   16.8436  101.3075   50.5928 C   0  0  0  0  0  0  0  0  0  0  0  0
   16.4873  101.4971   51.8589 N   0  0  0  0  0  0  0  0  0  0  0  0
   16.8629  102.4025   52.7672 N   0  0  0  0  0  0  0  0  0  0  0  0
   16.2093  102.1786   53.9296 C   0  0  0  0  0  0  0  0  0  0  0  0
   15.4022  101.0849   53.7053 C   0  0  0  0  0  0  0  0  0  0  0  0
   14.4954  100.4448   54.6426 C   0  0  0  0  0  0  0  0  0  0  0  0
   14.5461  100.7841   55.8706 O   0  0  0  0  0  0  0  0  0  0  0  0
   13.5426   99.4494   54.2671 N   0  0  0  0  0  0  0  0  0  0  0  0
   12.8816   98.7305   55.2857 C   0  0  0  0  0  0  0  0  0  0  0  0
   12.4089   99.2598   56.5167 C   0  0  0  0  0  0  0  0  0  0  0  0
   11.8107   98.4580   57.3629 C   0  0  0  0  0  0  0  0  0  0  0  0
   11.2519   98.8465   58.7010 C   0  0  0  0  0  0  0  0  0  0  0  0
   11.0866   97.8817   59.6435 C   0  0  0  0  0  0  0  0  0  0  0  0
   10.5651   98.2511   60.8911 C   0  0  0  0  0  0  0  0  0  0  0  0
   10.2186   99.5505   61.1866 C   0  0  0  0  0  0  0  0  0  0  0  0
    9.7155   99.8489   62.4160 F   0  0  0  0  0  0  0  0  0  0  0  0
   10.3973  100.5057   60.2119 C   0  0  0  0  0  0  0  0  0  0  0  0
   10.9131  100.1364   58.9805 C   0  0  0  0  0  0  0  0  0  0  0  0
   11.6716   97.1052   56.9958 N   0  0  0  0  0  0  0  0  0  0  0  0
   12.4704   97.0862   55.3393 S   0  0  0  0  0  0  0  0  0  0  0  0
   15.5848  100.6662   52.4046 C   0  0  0  0  0  0  0  0  0  0  0  0
   15.0534   99.6677   51.6949 N   0  0  0  0  0  0  0  0  0  0  0  0
  2  1  1  6
  2  3  1  0
  3  4  1  0
  4  5  1  0
  5  6  1  0
  6  7  1  0
  7  8  1  6
  8  9  1  0
  9 10  1  0
 10 11  2  0
 11 12  1  0
 12 13  1  0
 13 14  2  0
 14 15  1  0
 15 16  1  0
 16 17  2  0
 16 18  1  0
 18 19  1  0
 19 20  2  0
 20 21  1  0
 21 22  1  0
 22 23  2  0
 23 24  1  0
 24 25  2  0
 25 26  1  0
 25 27  1  0
 27 28  2  0
 21 29  2  0
 29 30  1  0
 15 31  2  0
 31 32  1  0
  7  2  1  0
 32  9  2  0
 31 12  1  0
 30 19  1  0
 28 22  1  0
M  END
$$$$
