
     RDKit          3D

 19 20  0  0  0  0  0  0  0  0999 V2000
   16.4701   59.8100   11.4354 C   0  0  0  0  0  0  0  0  0  0  0  0
   15.8680   60.0453   12.8329 C   0  0  0  0  0  0  0  0  0  0  0  0
   14.4348   59.6911   12.7472 C   0  0  0  0  0  0  0  0  0  0  0  0
   13.5516   60.6184   13.5199 C   0  0  0  0  0  0  0  0  0  0  0  0
   12.8893   60.2607   14.6972 N   0  0  0  0  0  0  0  0  0  0  0  0
   13.4208   61.7786   13.0535 O   0  0  0  0  0  0  0  0  0  0  0  0
   14.0688   58.3259   12.8966 N   0  0  0  0  0  0  0  0  0  0  0  0
   12.7783   57.9334   13.5270 C   0  0  0  0  0  0  0  0  0  0  0  0
   12.0987   56.9653   12.6215 C   0  0  0  0  0  0  0  0  0  0  0  0
   10.9297   57.1483   12.3025 O   0  0  0  0  0  0  0  0  0  0  0  0
   12.8770   55.8618   12.1766 N   0  0  0  0  0  0  0  0  0  0  0  0
   14.2916   56.0404   12.1146 C   0  0  0  0  0  0  0  0  0  0  0  0
   15.1142   55.0134   11.7131 C   0  0  0  0  0  0  0  0  0  0  0  0
   16.4940   55.1808   11.6674 C   0  0  0  0  0  0  0  0  0  0  0  0
   17.3013   54.1639   11.2698 F   0  0  0  0  0  0  0  0  0  0  0  0
   17.0580   56.3773   12.0239 C   0  0  0  0  0  0  0  0  0  0  0  0
   18.3968   56.5917   11.9977 F   0  0  0  0  0  0  0  0  0  0  0  0
   16.2623   57.4159   12.4269 C   0  0  0  0  0  0  0  0  0  0  0  0
   14.8897   57.2476   12.4697 C   0  0  0  0  0  0  0  0  0  0  0  0
  1  2  1  0
  2  3  1  0
  3  4  1  0
  4  5  1  0
  4  6  2  0
  3  7  1  0
  7  8  1  0
  8  9  1  0
  9 10  2  0
  9 11  1  0
 11 12  1  0
 12 13  2  0
 13 14  1  0
 14 15  1  0
 14 16  2  0
 16 17  1  0
 16 18  1  0
 18 19  2  0
 19  7  1  0
 19 12  1  0
M  END
$$$$
