
     RDKit          3D

 19 20  0  0  0  0  0  0  0  0999 V2000
   40.3258   77.9649   55.3311 C   0  0  0  0  0  0  0  0  0  0  0  0
   39.0187   77.9442   54.7944 O   0  0  0  0  0  0  0  0  0  0  0  0
   38.6093   78.9327   53.8858 C   0  0  0  0  0  0  0  0  0  0  0  0
   39.3007   79.0902   52.7115 C   0  0  0  0  0  0  0  0  0  0  0  0
   38.8850   80.0714   51.8222 C   0  0  0  0  0  0  0  0  0  0  0  0
   37.8106   80.8557   52.1215 C   0  0  0  0  0  0  0  0  0  0  0  0
   37.3879   81.8289   51.2537 O   0  0  0  0  0  0  0  0  0  0  0  0
   36.4143   81.7303   50.2636 C   0  0  0  0  0  0  0  0  0  0  0  0
   36.8468   82.5317   49.0283 C   0  0  0  0  0  0  0  0  0  0  0  0
   35.1719   82.4119   50.7493 C   0  0  0  0  0  0  0  0  0  0  0  0
   35.2780   83.2918   51.6448 O   0  0  0  0  0  0  0  0  0  0  0  0
   33.9383   82.0365   50.1804 N   0  0  0  0  0  0  0  0  0  0  0  0
   32.7582   82.8028   50.5683 C   0  0  0  0  0  0  0  0  0  0  0  0
   32.2314   82.2675   51.8937 C   0  0  0  0  0  0  0  0  0  0  0  0
   30.8382   81.7115   51.5696 C   0  0  0  0  0  0  0  0  0  0  0  0
   31.0806   81.2308   50.1329 C   0  0  0  0  0  0  0  0  0  0  0  0
   31.6932   82.4827   49.5397 C   0  0  0  0  0  0  0  0  0  0  0  0
   37.1085   80.7007   53.3067 C   0  0  0  0  0  0  0  0  0  0  0  0
   37.5135   79.7319   54.1920 C   0  0  0  0  0  0  0  0  0  0  0  0
  1  2  1  0
  2  3  1  0
  3  4  2  0
  4  5  1  0
  5  6  2  0
  6  7  1  0
  7  8  1  0
  8  9  1  0
  8 10  1  0
 10 11  2  0
 10 12  1  0
 12 13  1  0
 13 14  1  0
 14 15  1  0
 15 16  1  0
 16 17  1  0
  6 18  1  0
 18 19  2  0
 19  3  1  0
 17 13  1  0
M  END
$$$$
