
     RDKit          3D

 36 40  0  0  0  0  0  0  0  0999 V2000
   12.5082   48.8553   17.1773 C   0  0  0  0  0  0  0  0  0  0  0  0
   13.6357   49.0255   16.2956 N   0  0  0  0  0  0  0  0  0  0  0  0
   14.6894   49.7416   16.9626 C   0  0  0  0  0  0  0  0  0  0  0  0
   15.7743   50.0104   15.9447 C   0  0  0  0  0  0  0  0  0  0  0  0
   15.2988   50.9846   15.0171 N   0  0  0  0  0  0  0  0  0  0  0  0
   15.6631   52.3331   15.3067 C   0  0  0  0  0  0  0  0  0  0  0  0
   15.7232   53.1920   14.0446 C   0  0  0  0  0  0  0  0  0  0  0  0
   15.9121   54.6278   14.4275 C   0  0  0  0  0  0  0  0  0  0  0  0
   14.7499   55.3855   13.9258 N   0  0  0  0  0  0  0  0  0  0  0  0
   14.8319   56.5278   13.1266 C   0  0  0  0  0  0  0  0  0  0  0  0
   15.9853   56.6125   12.5327 O   0  0  0  0  0  0  0  0  0  0  0  0
   13.8777   57.5807   12.8684 C   0  0  0  0  0  0  0  0  0  0  0  0
   14.0362   58.8555   13.3145 C   0  0  0  0  0  0  0  0  0  0  0  0
   15.1263   59.3541   14.1247 C   0  0  0  0  0  0  0  0  0  0  0  0
   16.2062   60.0269   13.5357 C   0  0  0  0  0  0  0  0  0  0  0  0
   17.2524   60.5205   14.2780 C   0  0  0  0  0  0  0  0  0  0  0  0
   17.2847   60.3733   15.6471 C   0  0  0  0  0  0  0  0  0  0  0  0
   16.2185   59.7107   16.2131 C   0  0  0  0  0  0  0  0  0  0  0  0
   15.1653   59.2098   15.4998 C   0  0  0  0  0  0  0  0  0  0  0  0
   13.8794   58.3894   16.3453 Cl  0  0  0  0  0  0  0  0  0  0  0  0
   13.0597   59.8170   13.0014 C   0  0  0  0  0  0  0  0  0  0  0  0
   11.9376   59.4853   12.2464 C   0  0  0  0  0  0  0  0  0  0  0  0
   11.1580   60.5712   12.0808 N   0  0  0  0  0  0  0  0  0  0  0  0
   11.7485   61.5922   12.7087 C   0  0  0  0  0  0  0  0  0  0  0  0
   11.3957   62.9092   12.8568 C   0  0  0  0  0  0  0  0  0  0  0  0
   12.1385   63.8421   13.5484 C   0  0  0  0  0  0  0  0  0  0  0  0
   13.3082   63.3825   14.1150 C   0  0  0  0  0  0  0  0  0  0  0  0
   14.0597   64.2812   14.8024 F   0  0  0  0  0  0  0  0  0  0  0  0
   13.7209   62.0517   13.9987 C   0  0  0  0  0  0  0  0  0  0  0  0
   12.9465   61.1600   13.3000 C   0  0  0  0  0  0  0  0  0  0  0  0
   11.8425   58.1903   11.8338 C   0  0  0  0  0  0  0  0  0  0  0  0
   10.8311   57.8701   11.1481 O   0  0  0  0  0  0  0  0  0  0  0  0
   12.7653   57.2741   12.1270 N   0  0  0  0  0  0  0  0  0  0  0  0
   12.5484   55.9285   11.6414 C   0  0  0  0  0  0  0  0  0  0  0  0
   13.8918   50.9269   14.7660 C   0  0  0  0  0  0  0  0  0  0  0  0
   13.2867   49.5666   15.0212 C   0  0  0  0  0  0  0  0  0  0  0  0
  1  2  1  0
  2  3  1  0
  3  4  1  0
  4  5  1  0
  5  6  1  0
  6  7  1  0
  7  8  1  0
  8  9  1  0
  9 10  1  0
 10 11  2  0
 10 12  1  0
 12 13  2  0
 13 14  1  0
 14 15  2  0
 15 16  1  0
 16 17  2  0
 17 18  1  0
 18 19  2  0
 19 20  1  0
 13 21  1  0
 21 22  2  0
 22 23  1  0
 23 24  1  0
 24 25  2  0
 25 26  1  0
 26 27  2  0
 27 28  1  0
 27 29  1  0
 29 30  2  0
 22 31  1  0
 31 32  2  0
 31 33  1  0
 33 34  1  0
  5 35  1  0
 35 36  1  0
 36  2  1  0
 33 12  1  0
 19 14  1  0
 30 21  1  0
 30 24  1  0
M  END
$$$$
