
     RDKit          3D

 21 22  0  0  0  0  0  0  0  0999 V2000
   13.1986   91.2102   65.3668 C   0  0  0  0  0  0  0  0  0  0  0  0
   12.6748   92.1606   64.3481 C   0  0  0  0  0  0  0  0  0  0  0  0
   11.6946   91.8395   63.6270 O   0  0  0  0  0  0  0  0  0  0  0  0
   13.2812   93.4478   64.1799 N   0  0  0  0  0  0  0  0  0  0  0  0
   12.8689   94.2384   63.0854 C   0  0  0  0  0  0  0  0  0  0  0  0
   13.8015   94.9971   62.4197 C   0  0  0  0  0  0  0  0  0  0  0  0
   13.4038   95.7765   61.3432 C   0  0  0  0  0  0  0  0  0  0  0  0
   12.0668   95.7805   60.9511 C   0  0  0  0  0  0  0  0  0  0  0  0
   11.6219   96.5820   59.8337 N   0  0  0  0  0  0  0  0  0  0  0  0
   12.1530   97.8611   59.6725 C   0  0  0  0  0  0  0  0  0  0  0  0
   13.0928   98.2373   60.4758 O   0  0  0  0  0  0  0  0  0  0  0  0
   11.7118   98.7954   58.6565 C   0  0  0  0  0  0  0  0  0  0  0  0
   11.9207  100.1617   58.8754 C   0  0  0  0  0  0  0  0  0  0  0  0
   11.5025  101.0475   57.9334 C   0  0  0  0  0  0  0  0  0  0  0  0
   11.8021  102.9097   58.2607 Br  0  0  0  0  0  0  0  0  0  0  0  0
   10.8781  100.6569   56.7654 C   0  0  0  0  0  0  0  0  0  0  0  0
   10.6691   99.3368   56.5397 C   0  0  0  0  0  0  0  0  0  0  0  0
   11.0938   98.4038   57.5007 C   0  0  0  0  0  0  0  0  0  0  0  0
   10.8472   97.1171   57.1772 F   0  0  0  0  0  0  0  0  0  0  0  0
   11.1291   95.0257   61.6106 C   0  0  0  0  0  0  0  0  0  0  0  0
   11.5483   94.2566   62.6806 C   0  0  0  0  0  0  0  0  0  0  0  0
  1  2  1  0
  2  3  2  0
  2  4  1  0
  4  5  1  0
  5  6  2  0
  6  7  1  0
  7  8  2  0
  8  9  1  0
  9 10  1  0
 10 11  2  0
 10 12  1  0
 12 13  2  0
 13 14  1  0
 14 15  1  0
 14 16  2  0
 16 17  1  0
 17 18  2  0
 18 19  1  0
  8 20  1  0
 20 21  2  0
 21  5  1  0
 18 12  1  0
M  END
$$$$
