
     RDKit          3D

 24 26  0  0  0  0  0  0  0  0999 V2000
   16.7948  102.5691   53.6762 C   0  0  0  0  0  0  0  0  0  0  0  0
   16.5272  101.4370   54.6222 C   0  0  0  0  0  0  0  0  0  0  0  0
   15.3234  100.9423   55.0602 C   0  0  0  0  0  0  0  0  0  0  0  0
   15.5393   99.8884   55.9304 C   0  0  0  0  0  0  0  0  0  0  0  0
   14.5245   99.1389   56.5758 N   0  0  0  0  0  0  0  0  0  0  0  0
   13.1402   99.3573   56.4139 C   0  0  0  0  0  0  0  0  0  0  0  0
   12.7369  100.4662   56.0432 O   0  0  0  0  0  0  0  0  0  0  0  0
   12.1607   98.2579   56.6875 C   0  0  0  0  0  0  0  0  0  0  0  0
   11.5463   98.4880   57.9837 N   0  0  0  0  0  0  0  0  0  0  0  0
   11.8273   97.6849   58.9869 N   0  0  0  0  0  0  0  0  0  0  0  0
   11.2979   97.8235   60.2401 C   0  0  0  0  0  0  0  0  0  0  0  0
   11.6727   96.8820   61.2818 C   0  0  0  0  0  0  0  0  0  0  0  0
   10.7019   96.4772   62.2075 C   0  0  0  0  0  0  0  0  0  0  0  0
   10.9330   95.6007   63.2273 C   0  0  0  0  0  0  0  0  0  0  0  0
   12.1954   95.0750   63.3644 C   0  0  0  0  0  0  0  0  0  0  0  0
   13.1931   95.4264   62.4953 C   0  0  0  0  0  0  0  0  0  0  0  0
   12.9125   96.3348   61.4559 C   0  0  0  0  0  0  0  0  0  0  0  0
   13.9244   96.6523   60.6241 F   0  0  0  0  0  0  0  0  0  0  0  0
   10.4408   98.8747   60.3778 C   0  0  0  0  0  0  0  0  0  0  0  0
   10.1350   99.7373   59.3120 C   0  0  0  0  0  0  0  0  0  0  0  0
   10.7077   99.5340   58.0785 C   0  0  0  0  0  0  0  0  0  0  0  0
   10.4593  100.2853   57.0969 O   0  0  0  0  0  0  0  0  0  0  0  0
   16.8596   99.7618   56.0056 N   0  0  0  0  0  0  0  0  0  0  0  0
   17.4625  100.6790   55.2304 N   0  0  0  0  0  0  0  0  0  0  0  0
  1  2  1  0
  2  3  1  0
  3  4  2  0
  4  5  1  0
  5  6  1  0
  6  7  2  0
  6  8  1  0
  8  9  1  0
  9 10  1  0
 10 11  2  0
 11 12  1  0
 12 13  2  0
 13 14  1  0
 14 15  2  0
 15 16  1  0
 16 17  2  0
 17 18  1  0
 11 19  1  0
 19 20  2  0
 20 21  1  0
 21 22  2  0
  4 23  1  0
 23 24  1  0
 24  2  2  0
 21  9  1  0
 17 12  1  0
M  END
$$$$
