
     RDKit          3D

 30 32  0  0  0  0  0  0  0  0999 V2000
   11.9343   97.3943   62.1931 C   0  0  0  0  0  0  0  0  0  0  0  0
   11.4174   96.9900   60.8203 C   0  0  2  0  0  0  0  0  0  0  0  0
   10.0359   97.1207   60.8185 O   0  0  0  0  0  0  0  0  0  0  0  0
   11.7533   95.5047   60.6547 C   0  0  0  0  0  0  0  0  0  0  0  0
   11.3282   94.8430   61.8690 N   0  0  0  0  0  0  0  0  0  0  0  0
   12.0664   94.0645   62.6846 C   0  0  0  0  0  0  0  0  0  0  0  0
   11.2722   93.6360   63.7277 C   0  0  0  0  0  0  0  0  0  0  0  0
   11.6644   92.7757   64.8391 C   0  0  0  0  0  0  0  0  0  0  0  0
   12.9708   92.4023   65.0620 C   0  0  0  0  0  0  0  0  0  0  0  0
   13.3322   91.5831   66.1236 C   0  0  0  0  0  0  0  0  0  0  0  0
   12.3775   91.1113   67.0006 C   0  0  0  0  0  0  0  0  0  0  0  0
   11.0688   91.4855   66.7771 C   0  0  0  0  0  0  0  0  0  0  0  0
   10.1256   91.0342   67.6232 F   0  0  0  0  0  0  0  0  0  0  0  0
   10.7101   92.3035   65.7166 C   0  0  0  0  0  0  0  0  0  0  0  0
   10.0285   94.1899   63.5029 C   0  0  0  0  0  0  0  0  0  0  0  0
   10.1014   94.9114   62.3725 N   0  0  0  0  0  0  0  0  0  0  0  0
   12.0214   97.7962   59.7440 C   0  0  0  0  0  0  0  0  0  0  0  0
   13.2573   97.7771   59.4906 O   0  0  0  0  0  0  0  0  0  0  0  0
   11.1680   98.6354   58.9543 N   0  0  0  0  0  0  0  0  0  0  0  0
   11.6770   99.2582   57.7827 C   0  0  0  0  0  0  0  0  0  0  0  0
   10.7820   99.9010   56.9604 C   0  0  0  0  0  0  0  0  0  0  0  0
   11.2906  100.5020   55.8248 C   0  0  0  0  0  0  0  0  0  0  0  0
   12.6271  100.4594   55.5310 C   0  0  0  0  0  0  0  0  0  0  0  0
   13.1143  101.1080   54.3216 C   0  0  0  0  0  0  0  0  0  0  0  0
   13.4825  101.6302   53.3589 N   0  0  0  0  0  0  0  0  0  0  0  0
   13.4925   99.8184   56.3586 C   0  0  0  0  0  0  0  0  0  0  0  0
   14.9501   99.7547   56.0674 C   0  0  0  0  0  0  0  0  0  0  0  0
   15.1977   98.8359   55.0664 F   0  0  0  0  0  0  0  0  0  0  0  0
   15.5615   99.2641   57.2252 F   0  0  0  0  0  0  0  0  0  0  0  0
   13.0074   99.2026   57.5124 C   0  0  0  0  0  0  0  0  0  0  0  0
  2  1  1  1
  2  3  1  0
  2  4  1  0
  4  5  1  0
  5  6  1  0
  6  7  2  0
  7  8  1  0
  8  9  2  0
  9 10  1  0
 10 11  2  0
 11 12  1  0
 12 13  1  0
 12 14  2  0
  7 15  1  0
 15 16  2  0
  2 17  1  0
 17 18  2  0
 17 19  1  0
 19 20  1  0
 20 21  2  0
 21 22  1  0
 22 23  2  0
 23 24  1  0
 24 25  3  0
 23 26  1  0
 26 27  1  0
 27 28  1  0
 27 29  1  0
 26 30  2  0
 16  5  1  0
 30 20  1  0
 14  8  1  0
M  END
$$$$
