
     RDKit          3D

 23 26  0  0  0  0  0  0  0  0999 V2000
   11.3448   89.7465   66.7029 C   0  0  0  0  0  0  0  0  0  0  0  0
   12.0451   90.9998   66.2598 C   0  0  0  0  0  0  0  0  0  0  0  0
   12.3711   90.8993   64.7726 C   0  0  0  0  0  0  0  0  0  0  0  0
   12.9960   92.1909   64.3858 C   0  0  0  0  0  0  0  0  0  0  0  0
   13.8394   92.9570   65.0840 N   0  0  0  0  0  0  0  0  0  0  0  0
   14.1384   94.0072   64.3592 O   0  0  0  0  0  0  0  0  0  0  0  0
   13.5153   93.9472   63.2114 C   0  0  0  0  0  0  0  0  0  0  0  0
   13.5564   94.9117   62.0877 C   0  0  0  0  0  0  0  0  0  0  0  0
   12.2081   95.5439   61.8289 C   0  0  0  0  0  0  0  0  0  0  0  0
   12.3531   96.4498   60.6807 C   0  0  0  0  0  0  0  0  0  0  0  0
   13.1284   96.1693   59.7538 O   0  0  0  0  0  0  0  0  0  0  0  0
   11.6069   97.6450   60.6320 N   0  0  0  0  0  0  0  0  0  0  0  0
   11.5586   98.5110   59.5001 C   0  0  0  0  0  0  0  0  0  0  0  0
   10.6700   99.6755   59.7887 C   0  0  0  0  0  0  0  0  0  0  0  0
   10.5619  100.5884   58.5756 C   0  0  0  0  0  0  0  0  0  0  0  0
    9.9150   99.7913   57.4699 C   0  0  0  0  0  0  0  0  0  0  0  0
   10.8569   98.6662   57.1031 C   0  0  0  0  0  0  0  0  0  0  0  0
   12.2245   99.1691   56.6968 C   0  0  0  0  0  0  0  0  0  0  0  0
   12.8105   99.8874   57.8875 C   0  0  0  0  0  0  0  0  0  0  0  0
   11.9255  101.0724   58.1809 C   0  0  0  0  0  0  0  0  0  0  0  0
   12.9430   99.0115   59.1007 C   0  0  0  0  0  0  0  0  0  0  0  0
   11.0248   97.7685   58.2820 C   0  0  0  0  0  0  0  0  0  0  0  0
   12.7964   92.8172   63.2121 N   0  0  0  0  0  0  0  0  0  0  0  0
  1  2  1  0
  2  3  1  0
  3  4  1  0
  4  5  2  0
  5  6  1  0
  6  7  1  0
  7  8  1  0
  8  9  1  0
  9 10  1  0
 10 11  2  0
 10 12  1  0
 12 13  1  0
 13 14  1  0
 14 15  1  0
 15 16  1  0
 16 17  1  0
 17 18  1  0
 18 19  1  0
 19 20  1  0
 19 21  1  0
 17 22  1  0
  7 23  2  0
 23  4  1  0
 21 13  1  0
 22 13  1  0
 20 15  1  0
M  END
$$$$
