
     RDKit          3D

 22 23  0  0  0  0  0  0  0  0999 V2000
   -5.0499   62.4281   32.2311 C   0  0  0  0  0  0  0  0  0  0  0  0
   -4.8802   62.0261   30.9835 C   0  0  0  0  0  0  0  0  0  0  0  0
   -3.5414   61.9507   30.3374 C   0  0  0  0  0  0  0  0  0  0  0  0
   -2.5302   62.8159   31.0998 C   0  0  0  0  0  0  0  0  0  0  0  0
   -2.9638   64.2462   30.9283 C   0  0  0  0  0  0  0  0  0  0  0  0
   -3.9828   64.5455   30.2458 O   0  0  0  0  0  0  0  0  0  0  0  0
   -2.2532   65.3146   31.5208 N   0  0  0  0  0  0  0  0  0  0  0  0
   -2.3786   66.6667   31.0671 C   0  0  0  0  0  0  0  0  0  0  0  0
   -3.7649   67.2391   31.2392 C   0  0  0  0  0  0  0  0  0  0  0  0
   -3.9146   68.0753   32.4648 C   0  0  0  0  0  0  0  0  0  0  0  0
   -3.3927   69.3965   32.1701 N   0  0  0  0  0  0  0  0  0  0  0  0
   -2.1311   69.9004   32.6756 C   0  0  0  0  0  0  0  0  0  0  0  0
   -1.7102   70.9561   31.6873 C   0  0  0  0  0  0  0  0  0  0  0  0
   -3.0028   71.5498   31.2197 C   0  0  0  0  0  0  0  0  0  0  0  0
   -3.9606   70.4130   31.3797 C   0  0  0  0  0  0  0  0  0  0  0  0
   -5.1133   70.3575   30.8848 O   0  0  0  0  0  0  0  0  0  0  0  0
   -3.1165   60.5315   30.3396 C   0  0  0  0  0  0  0  0  0  0  0  0
   -4.1007   59.5600   30.3799 C   0  0  0  0  0  0  0  0  0  0  0  0
   -3.7574   58.2322   30.3837 C   0  0  0  0  0  0  0  0  0  0  0  0
   -2.4376   57.8727   30.3474 C   0  0  0  0  0  0  0  0  0  0  0  0
   -1.4639   58.8267   30.3076 C   0  0  0  0  0  0  0  0  0  0  0  0
   -1.7883   60.1627   30.3032 C   0  0  0  0  0  0  0  0  0  0  0  0
  1  2  2  0
  2  3  1  0
  3  4  1  0
  4  5  1  0
  5  6  2  0
  5  7  1  0
  7  8  1  0
  8  9  1  0
  9 10  1  0
 10 11  1  0
 11 12  1  0
 12 13  1  0
 13 14  1  0
 14 15  1  0
 15 16  2  0
  3 17  1  0
 17 18  2  0
 18 19  1  0
 19 20  2  0
 20 21  1  0
 21 22  2  0
 15 11  1  0
 22 17  1  0
M  END
$$$$
