
     RDKit          3D

 32 35  0  0  0  0  0  0  0  0999 V2000
   11.1259   47.7096   14.3821 C   0  0  0  0  0  0  0  0  0  0  0  0
   11.5016   47.3144   15.7186 N   0  0  0  0  0  0  0  0  0  0  0  0
   12.3665   48.1526   16.4612 C   0  0  0  0  0  0  0  0  0  0  0  0
   12.7349   49.2703   16.0441 O   0  0  0  0  0  0  0  0  0  0  0  0
   12.8717   47.7049   17.7986 C   0  0  2  0  0  0  0  0  0  0  0  0
   12.0550   48.3028   18.8878 C   0  0  0  0  0  0  0  0  0  0  0  0
   12.8279   49.4897   19.3584 C   0  0  0  0  0  0  0  0  0  0  0  0
   14.1942   49.3677   18.7480 C   0  0  0  0  0  0  0  0  0  0  0  0
   14.2134   48.1248   18.0030 N   0  0  0  0  0  0  0  0  0  0  0  0
   15.3711   47.4323   17.5206 C   0  0  0  0  0  0  0  0  0  0  0  0
   15.2474   46.5610   16.6417 O   0  0  0  0  0  0  0  0  0  0  0  0
   16.6626   47.7794   18.0804 C   0  0  0  0  0  0  0  0  0  0  0  0
   17.7008   47.9368   17.1913 C   0  0  0  0  0  0  0  0  0  0  0  0
   18.9324   48.2806   17.6625 C   0  0  0  0  0  0  0  0  0  0  0  0
   19.1701   48.4778   19.0284 C   0  0  0  0  0  0  0  0  0  0  0  0
   20.5096   48.8736   19.4338 C   0  0  0  0  0  0  0  0  0  0  0  0
   20.7862   50.3513   19.4771 C   0  0  2  0  0  0  0  0  0  0  0  0
   20.6272   50.8987   18.0955 C   0  0  0  0  0  0  0  0  0  0  0  0
   20.4995   51.3310   17.0279 N   0  0  0  0  0  0  0  0  0  0  0  0
   22.0896   50.6625   19.9861 N   0  0  0  0  0  0  0  0  0  0  0  0
   22.2703   51.5894   21.0771 C   0  0  0  0  0  0  0  0  0  0  0  0
   21.2600   52.0515   21.6389 O   0  0  0  0  0  0  0  0  0  0  0  0
   23.6549   51.9488   21.4763 C   0  0  1  0  0  0  0  0  0  0  0  0
   23.5651   52.9608   22.5491 N   0  0  0  0  0  0  0  0  0  0  0  0
   24.4964   52.4820   23.5429 C   0  0  2  0  0  0  0  0  0  0  0  0
   25.8375   52.3565   22.8998 C   0  0  0  0  0  0  0  0  0  0  0  0
   25.8368   51.0295   22.1251 C   0  0  0  0  0  0  0  0  0  0  0  0
   24.3609   50.7561   22.0910 C   0  0  1  0  0  0  0  0  0  0  0  0
   24.0413   51.0067   23.5751 C   0  0  0  0  0  0  0  0  0  0  0  0
   18.1233   48.3188   19.9390 C   0  0  0  0  0  0  0  0  0  0  0  0
   18.3554   48.5093   21.2607 F   0  0  0  0  0  0  0  0  0  0  0  0
   16.8978   47.9722   19.4263 C   0  0  0  0  0  0  0  0  0  0  0  0
  1  2  1  0
  2  3  1  0
  3  4  2  0
  5  3  1  6
  5  6  1  0
  6  7  1  0
  7  8  1  0
  8  9  1  0
  9 10  1  0
 10 11  2  0
 10 12  1  0
 12 13  2  0
 13 14  1  0
 14 15  2  0
 15 16  1  0
 17 16  1  6
 17 18  1  0
 18 19  3  0
 17 20  1  0
 20 21  1  0
 21 22  2  0
 23 21  1  1
 23 24  1  0
 24 25  1  0
 25 26  1  6
 26 27  1  0
 28 27  1  1
 28 29  1  0
 15 30  1  0
 30 31  1  0
 30 32  2  0
  9  5  1  0
 32 12  1  0
 28 23  1  0
 29 25  1  0
M  END
$$$$
