
     RDKit          3D

 27 31  0  0  0  0  0  0  0  0999 V2000
   29.2861   82.9723   50.9748 C   0  0  0  0  0  0  0  0  0  0  0  0
   30.3914   82.2614   51.7155 C   0  0  0  0  0  0  0  0  0  0  0  0
   29.8432   81.1675   52.6190 C   0  0  0  0  0  0  0  0  0  0  0  0
   31.1702   83.2127   52.5999 C   0  0  0  0  0  0  0  0  0  0  0  0
   32.3981   82.4853   52.7395 O   0  0  0  0  0  0  0  0  0  0  0  0
   32.6315   81.8800   51.4887 C   0  0  0  0  0  0  0  0  0  0  0  0
   31.4301   81.7262   50.8305 C   0  0  0  0  0  0  0  0  0  0  0  0
   31.4030   81.1483   49.5682 C   0  0  0  0  0  0  0  0  0  0  0  0
   32.5616   80.7239   48.9589 C   0  0  0  0  0  0  0  0  0  0  0  0
   33.7645   80.8880   49.6401 C   0  0  0  0  0  0  0  0  0  0  0  0
   33.7961   81.4591   50.8886 C   0  0  0  0  0  0  0  0  0  0  0  0
   35.1138   81.6294   51.6236 C   0  0  0  0  0  0  0  0  0  0  0  0
   36.1060   82.4844   50.9685 C   0  0  0  0  0  0  0  0  0  0  0  0
   35.6610   83.6400   50.5490 O   0  0  0  0  0  0  0  0  0  0  0  0
   37.4458   82.2463   50.7295 N   0  0  0  0  0  0  0  0  0  0  0  0
   37.9837   80.9161   51.1247 C   0  0  0  0  0  0  0  0  0  0  0  0
   38.9513   81.2268   52.2491 C   0  0  0  0  0  0  0  0  0  0  0  0
   39.9231   82.1712   51.7252 N   0  0  0  0  0  0  0  0  0  0  0  0
   40.9357   82.6423   52.5856 C   0  0  0  0  0  0  0  0  0  0  0  0
   41.1981   82.0655   53.6884 O   0  0  0  0  0  0  0  0  0  0  0  0
   41.7269   83.8249   52.2345 C   0  0  0  0  0  0  0  0  0  0  0  0
   41.5495   84.9885   53.2050 C   0  0  0  0  0  0  0  0  0  0  0  0
   42.8546   84.3051   53.0601 C   0  0  0  0  0  0  0  0  0  0  0  0
   39.8475   82.6122   50.3472 C   0  0  0  0  0  0  0  0  0  0  0  0
   38.3999   83.1251   50.1391 C   0  0  0  0  0  0  0  0  0  0  0  0
   35.6431   80.4026   52.3187 C   0  0  0  0  0  0  0  0  0  0  0  0
   34.9707   81.4500   53.0983 C   0  0  0  0  0  0  0  0  0  0  0  0
  1  2  1  0
  2  3  1  0
  2  4  1  0
  4  5  1  0
  5  6  1  0
  6  7  2  0
  7  8  1  0
  8  9  2  0
  9 10  1  0
 10 11  2  0
 11 12  1  0
 12 13  1  0
 13 14  2  0
 13 15  1  0
 15 16  1  0
 16 17  1  0
 17 18  1  0
 18 19  1  0
 19 20  2  0
 19 21  1  0
 21 22  1  0
 22 23  1  0
 18 24  1  0
 24 25  1  0
 12 26  1  0
 26 27  1  0
  7  2  1  0
 27 12  1  0
 11  6  1  0
 25 15  1  0
 23 21  1  0
M  END
$$$$
