
     RDKit          3D

 19 20  0  0  0  0  0  0  0  0999 V2000
   11.1269  100.7180   58.0507 C   0  0  0  0  0  0  0  0  0  0  0  0
   11.5033   99.2656   58.3502 C   0  0  0  0  0  0  0  0  0  0  0  0
   11.1379   98.9564   59.7117 N   0  0  0  0  0  0  0  0  0  0  0  0
   12.9998   99.0524   58.2203 C   0  0  0  0  0  0  0  0  0  0  0  0
   13.2778   97.5687   58.4286 C   0  0  0  0  0  0  0  0  0  0  0  0
   13.3899   99.4428   56.8569 C   0  0  0  0  0  0  0  0  0  0  0  0
   13.1229   98.7325   55.8337 O   0  0  0  0  0  0  0  0  0  0  0  0
   14.0928  100.6633   56.6819 N   0  0  0  0  0  0  0  0  0  0  0  0
   14.8078  100.9624   55.4772 C   0  0  0  0  0  0  0  0  0  0  0  0
   14.5431  100.4678   54.2211 C   0  0  0  0  0  0  0  0  0  0  0  0
   15.4708  101.0156   53.3658 C   0  0  0  0  0  0  0  0  0  0  0  0
   15.5628  100.7613   51.9124 C   0  0  0  0  0  0  0  0  0  0  0  0
   14.7866   99.7830   51.3549 C   0  0  0  0  0  0  0  0  0  0  0  0
   14.8884   99.5648   50.0061 C   0  0  0  0  0  0  0  0  0  0  0  0
   15.7289  100.2961   49.2635 N   0  0  0  0  0  0  0  0  0  0  0  0
   16.5077  101.2698   49.7905 C   0  0  0  0  0  0  0  0  0  0  0  0
   16.4188  101.5044   51.1492 C   0  0  0  0  0  0  0  0  0  0  0  0
   16.2514  101.8020   54.0899 N   0  0  0  0  0  0  0  0  0  0  0  0
   15.8744  101.7869   55.3574 N   0  0  0  0  0  0  0  0  0  0  0  0
  1  2  1  0
  2  3  1  0
  2  4  1  0
  4  5  1  0
  4  6  1  0
  6  7  2  0
  6  8  1  0
  8  9  1  0
  9 10  2  0
 10 11  1  0
 11 12  1  0
 12 13  2  0
 13 14  1  0
 14 15  2  0
 15 16  1  0
 16 17  2  0
 11 18  2  0
 18 19  1  0
 19  9  1  0
 17 12  1  0
M  END
$$$$
