
     RDKit          3D

 25 28  0  0  0  0  0  0  0  0999 V2000
   14.4683   54.8868   14.3034 C   0  0  0  0  0  0  0  0  0  0  0  0
   15.1936   53.6903   13.8164 C   0  0  0  0  0  0  0  0  0  0  0  0
   16.1512   54.0889   12.7220 C   0  0  0  0  0  0  0  0  0  0  0  0
   15.6339   54.5891   11.5147 C   0  0  0  0  0  0  0  0  0  0  0  0
   16.4615   54.9704   10.4837 C   0  0  0  0  0  0  0  0  0  0  0  0
   17.7827   54.8757   10.6016 N   0  0  0  0  0  0  0  0  0  0  0  0
   18.3360   54.4142   11.7088 C   0  0  0  0  0  0  0  0  0  0  0  0
   17.5098   54.0189   12.7749 C   0  0  0  0  0  0  0  0  0  0  0  0
   15.7749   52.9195   14.8683 N   0  0  0  0  0  0  0  0  0  0  0  0
   15.9124   53.6546   16.1671 C   0  0  0  0  0  0  0  0  0  0  0  0
   16.2251   51.5930   14.8599 C   0  0  0  0  0  0  0  0  0  0  0  0
   16.6648   50.9550   13.8746 O   0  0  0  0  0  0  0  0  0  0  0  0
   16.2223   50.7731   16.1029 C   0  0  0  0  0  0  0  0  0  0  0  0
   15.0142   50.4535   16.6885 C   0  0  0  0  0  0  0  0  0  0  0  0
   14.9749   49.7001   17.8439 C   0  0  0  0  0  0  0  0  0  0  0  0
   13.6751   49.3480   18.4867 C   0  0  0  0  0  0  0  0  0  0  0  0
   13.6147   48.3816   19.5835 C   0  0  0  0  0  0  0  0  0  0  0  0
   13.5565   49.8394   19.9312 C   0  0  0  0  0  0  0  0  0  0  0  0
   16.1584   49.3099   18.3457 N   0  0  0  0  0  0  0  0  0  0  0  0
   17.3522   49.6092   17.7921 C   0  0  0  0  0  0  0  0  0  0  0  0
   18.5471   49.1922   18.3315 C   0  0  0  0  0  0  0  0  0  0  0  0
   19.7839   49.4748   17.7976 C   0  0  0  0  0  0  0  0  0  0  0  0
   19.8477   50.2257   16.6434 C   0  0  0  0  0  0  0  0  0  0  0  0
   18.6481   50.6655   16.0695 C   0  0  0  0  0  0  0  0  0  0  0  0
   17.4227   50.3708   16.6216 C   0  0  0  0  0  0  0  0  0  0  0  0
  1  2  1  0
  2  3  1  0
  3  4  2  0
  4  5  1  0
  5  6  2  0
  6  7  1  0
  7  8  2  0
  2  9  1  0
  9 10  1  0
  9 11  1  0
 11 12  2  0
 11 13  1  0
 13 14  2  0
 14 15  1  0
 15 16  1  0
 16 17  1  0
 17 18  1  0
 15 19  2  0
 19 20  1  0
 20 21  2  0
 21 22  1  0
 22 23  2  0
 23 24  1  0
 24 25  2  0
  8  3  1  0
 25 13  1  0
 18 16  1  0
 25 20  1  0
M  END
$$$$
