
     RDKit          3D

 28 30  0  0  0  0  0  0  0  0999 V2000
   37.2785   80.6977   47.6488 C   0  0  0  0  0  0  0  0  0  0  0  0
   37.0229   81.5906   48.7480 N   0  0  0  0  0  0  0  0  0  0  0  0
   35.9339   82.5661   48.7202 C   0  0  0  0  0  0  0  0  0  0  0  0
   34.6439   81.9160   49.0675 C   0  0  0  0  0  0  0  0  0  0  0  0
   34.6424   80.9146   49.8266 O   0  0  0  0  0  0  0  0  0  0  0  0
   33.4044   82.3888   48.5692 N   0  0  0  0  0  0  0  0  0  0  0  0
   32.2315   82.3078   49.3593 C   0  0  0  0  0  0  0  0  0  0  0  0
   31.2148   83.2160   49.1633 C   0  0  0  0  0  0  0  0  0  0  0  0
   30.0434   83.1766   49.9150 C   0  0  0  0  0  0  0  0  0  0  0  0
   29.9197   82.1853   50.8832 C   0  0  0  0  0  0  0  0  0  0  0  0
   28.7731   82.1578   51.6090 F   0  0  0  0  0  0  0  0  0  0  0  0
   30.9211   81.2634   51.1009 C   0  0  0  0  0  0  0  0  0  0  0  0
   30.7258   80.0347   52.3265 Cl  0  0  0  0  0  0  0  0  0  0  0  0
   32.0687   81.3437   50.3269 C   0  0  0  0  0  0  0  0  0  0  0  0
   37.8350   81.5403   49.8965 C   0  0  0  0  0  0  0  0  0  0  0  0
   38.9585   80.9593   49.9020 O   0  0  0  0  0  0  0  0  0  0  0  0
   37.3991   82.1712   51.1499 C   0  0  0  0  0  0  0  0  0  0  0  0
   38.2613   81.8576   52.2653 N   0  0  0  0  0  0  0  0  0  0  0  0
   39.3671   82.6817   52.6542 C   0  0  0  0  0  0  0  0  0  0  0  0
   39.8496   83.6289   51.9677 O   0  0  0  0  0  0  0  0  0  0  0  0
   39.8547   82.2469   53.9888 C   0  0  0  0  0  0  0  0  0  0  0  0
   41.3627   82.2887   53.9458 C   0  0  0  0  0  0  0  0  0  0  0  0
   41.8532   81.4600   55.1205 C   0  0  0  0  0  0  0  0  0  0  0  0
   41.5506   80.0276   54.8256 C   0  0  0  0  0  0  0  0  0  0  0  0
   40.3069   79.7775   54.0531 C   0  0  0  0  0  0  0  0  0  0  0  0
   39.2952   80.8839   54.1324 C   0  0  0  0  0  0  0  0  0  0  0  0
   38.2086   80.7488   53.1553 C   0  0  0  0  0  0  0  0  0  0  0  0
   37.3828   79.8059   53.1273 O   0  0  0  0  0  0  0  0  0  0  0  0
  1  2  1  0
  2  3  1  0
  3  4  1  0
  4  5  2  0
  4  6  1  0
  6  7  1  0
  7  8  2  0
  8  9  1  0
  9 10  2  0
 10 11  1  0
 10 12  1  0
 12 13  1  0
 12 14  2  0
  2 15  1  0
 15 16  2  0
 15 17  1  0
 17 18  1  0
 18 19  1  0
 19 20  2  0
 19 21  1  0
 21 22  1  0
 22 23  1  0
 23 24  1  0
 24 25  1  0
 25 26  1  0
 26 27  1  0
 27 28  2  0
 14  7  1  0
 27 18  1  0
 26 21  1  0
M  END
$$$$
