
     RDKit          3D

 34 38  0  0  0  0  0  0  0  0999 V2000
   16.3933   93.7829   63.8663 N   0  0  0  0  0  0  0  0  0  0  0  0
   15.3094   93.4765   63.5923 C   0  0  0  0  0  0  0  0  0  0  0  0
   13.9130   93.1076   63.2337 C   0  0  0  0  0  0  0  0  0  0  0  0
   13.6255   91.7410   63.7766 C   0  0  0  0  0  0  0  0  0  0  0  0
   13.2043   91.7760   65.2267 C   0  0  0  0  0  0  0  0  0  0  0  0
   13.7200   92.9641   65.9606 C   0  0  0  0  0  0  0  0  0  0  0  0
   13.4902   94.2882   65.3143 C   0  0  0  0  0  0  0  0  0  0  0  0
   12.9543   94.0668   63.9160 C   0  0  0  0  0  0  0  0  0  0  0  0
   12.8073   95.2898   63.1849 N   0  0  0  0  0  0  0  0  0  0  0  0
   12.4233   95.1887   61.7896 C   0  0  0  0  0  0  0  0  0  0  0  0
   12.3309   94.0523   61.2696 O   0  0  0  0  0  0  0  0  0  0  0  0
   12.1529   96.3733   61.0059 C   0  0  0  0  0  0  0  0  0  0  0  0
   11.1056   96.4520   60.1337 C   0  0  0  0  0  0  0  0  0  0  0  0
   10.8609   97.5833   59.3704 C   0  0  0  0  0  0  0  0  0  0  0  0
   11.6992   98.6645   59.4906 C   0  0  0  0  0  0  0  0  0  0  0  0
   11.4770   99.9151   58.6789 C   0  0  1  0  0  0  0  0  0  0  0  0
   12.5764   99.9006   57.6060 C   0  0  0  0  0  0  0  0  0  0  0  0
   12.1770  100.5867   56.4188 N   0  0  0  0  0  0  0  0  0  0  0  0
   13.0324  101.5171   55.7907 C   0  0  0  0  0  0  0  0  0  0  0  0
   12.8111  102.7695   55.8973 O   0  0  0  0  0  0  0  0  0  0  0  0
   14.2067  101.1546   54.9926 C   0  0  0  0  0  0  0  0  0  0  0  0
   14.9789  102.1880   54.4209 C   0  0  0  0  0  0  0  0  0  0  0  0
   16.0711  101.8461   53.6927 C   0  0  0  0  0  0  0  0  0  0  0  0
   16.4458  100.5509   53.4938 C   0  0  0  0  0  0  0  0  0  0  0  0
   17.4630   99.9467   52.8311 N   0  0  0  0  0  0  0  0  0  0  0  0
   17.3420   98.6262   52.9715 N   0  0  0  0  0  0  0  0  0  0  0  0
   16.2783   98.3913   53.7026 N   0  0  0  0  0  0  0  0  0  0  0  0
   15.6889   99.5074   54.0533 C   0  0  0  0  0  0  0  0  0  0  0  0
   14.5725   99.8786   54.7970 C   0  0  0  0  0  0  0  0  0  0  0  0
   10.8874  100.3125   55.8398 C   0  0  0  0  0  0  0  0  0  0  0  0
   10.2317   99.2820   56.7848 C   0  0  0  0  0  0  0  0  0  0  0  0
   10.1816   99.8942   58.0850 N   0  0  0  0  0  0  0  0  0  0  0  0
   12.7819   98.6176   60.3759 C   0  0  0  0  0  0  0  0  0  0  0  0
   12.9828   97.4613   61.1190 C   0  0  0  0  0  0  0  0  0  0  0  0
  1  2  3  0
  2  3  1  0
  3  4  1  0
  4  5  1  0
  5  6  1  0
  6  7  1  0
  7  8  1  0
  8  9  1  0
  9 10  1  0
 10 11  2  0
 10 12  1  0
 12 13  2  0
 13 14  1  0
 14 15  2  0
 16 15  1  1
 16 17  1  0
 17 18  1  0
 18 19  1  0
 19 20  2  0
 19 21  1  0
 21 22  2  0
 22 23  1  0
 23 24  2  0
 24 25  1  0
 25 26  1  0
 26 27  2  0
 27 28  1  0
 28 29  2  0
 18 30  1  0
 30 31  1  0
 31 32  1  0
 15 33  1  0
 33 34  2  0
  8  3  1  0
 34 12  1  0
 32 16  1  0
 29 21  1  0
 28 24  1  0
M  END
$$$$
