
     RDKit          3D

 19 21  0  0  0  0  0  0  0  0999 V2000
   13.5903   96.6261   59.2477 O   0  0  0  0  0  0  0  0  0  0  0  0
   12.6807   97.4419   59.4667 C   0  0  0  0  0  0  0  0  0  0  0  0
   11.7736   97.1246   60.5046 N   0  0  0  0  0  0  0  0  0  0  0  0
   11.9021   95.9660   61.2858 C   0  0  0  0  0  0  0  0  0  0  0  0
   12.4125   96.1449   62.6741 C   0  0  0  0  0  0  0  0  0  0  0  0
   12.7210   94.8109   63.2587 C   0  0  0  0  0  0  0  0  0  0  0  0
   13.9659   94.2302   63.0887 C   0  0  0  0  0  0  0  0  0  0  0  0
   14.2909   92.9960   63.6144 C   0  0  0  0  0  0  0  0  0  0  0  0
   13.3631   92.2887   64.3417 C   0  0  0  0  0  0  0  0  0  0  0  0
   12.1187   92.8503   64.5216 C   0  0  0  0  0  0  0  0  0  0  0  0
   11.8106   94.0838   63.9897 C   0  0  0  0  0  0  0  0  0  0  0  0
   12.6201   98.6194   58.6673 C   0  0  0  0  0  0  0  0  0  0  0  0
   13.6619   99.0926   57.3223 S   0  0  0  0  0  0  0  0  0  0  0  0
   12.7856  100.7066   56.9883 C   0  0  0  0  0  0  0  0  0  0  0  0
   11.9189  100.6468   57.8640 N   0  0  0  0  0  0  0  0  0  0  0  0
   11.7468   99.6984   58.7200 C   0  0  0  0  0  0  0  0  0  0  0  0
   10.6520   99.7123   59.7611 C   0  0  0  0  0  0  0  0  0  0  0  0
   10.3002  101.1034   60.2157 C   0  0  0  0  0  0  0  0  0  0  0  0
    9.3275  100.2602   59.4209 C   0  0  0  0  0  0  0  0  0  0  0  0
  1  2  2  0
  2  3  1  0
  3  4  1  0
  4  5  1  0
  5  6  1  0
  6  7  2  0
  7  8  1  0
  8  9  2  0
  9 10  1  0
 10 11  2  0
  2 12  1  0
 12 13  1  0
 13 14  1  0
 14 15  2  0
 15 16  1  0
 16 17  1  0
 17 18  1  0
 18 19  1  0
 11  6  1  0
 16 12  2  0
 19 17  1  0
M  END
$$$$
