
     RDKit          3D

 21 22  0  0  0  0  0  0  0  0999 V2000
   14.6317   97.6223   58.1722 C   0  0  0  0  0  0  0  0  0  0  0  0
   13.6972   97.2512   59.1509 O   0  0  0  0  0  0  0  0  0  0  0  0
   12.6648   98.0472   59.5638 C   0  0  0  0  0  0  0  0  0  0  0  0
   12.2427   99.0920   58.8027 C   0  0  0  0  0  0  0  0  0  0  0  0
   11.1906   99.9029   59.2253 C   0  0  0  0  0  0  0  0  0  0  0  0
   10.7167  101.0184   58.4557 C   0  0  0  0  0  0  0  0  0  0  0  0
   10.3398  101.9159   57.8139 N   0  0  0  0  0  0  0  0  0  0  0  0
   10.5713   99.6525   60.4169 C   0  0  0  0  0  0  0  0  0  0  0  0
   11.0248   98.5840   61.1660 C   0  0  0  0  0  0  0  0  0  0  0  0
   12.0463   97.7452   60.8198 C   0  0  0  0  0  0  0  0  0  0  0  0
   12.5088   96.7061   61.5097 O   0  0  0  0  0  0  0  0  0  0  0  0
   12.3228   95.7962   62.4384 C   0  0  0  0  0  0  0  0  0  0  0  0
   13.4384   95.3018   63.3167 C   0  0  0  0  0  0  0  0  0  0  0  0
   14.0512   96.4969   64.0307 C   0  0  0  0  0  0  0  0  0  0  0  0
   14.5567   94.6681   62.5337 C   0  0  0  0  0  0  0  0  0  0  0  0
   12.9163   94.3408   64.2072 N   0  0  0  0  0  0  0  0  0  0  0  0
   11.7247   94.6014   64.9073 C   0  0  0  0  0  0  0  0  0  0  0  0
   10.7359   93.4958   64.6215 C   0  0  0  0  0  0  0  0  0  0  0  0
   10.9597   92.8449   63.4184 O   0  0  0  0  0  0  0  0  0  0  0  0
   12.1894   92.1945   63.3897 C   0  0  0  0  0  0  0  0  0  0  0  0
   13.2544   92.9947   64.1219 C   0  0  0  0  0  0  0  0  0  0  0  0
  1  2  1  0
  2  3  1  0
  3  4  2  0
  4  5  1  0
  5  6  1  0
  6  7  3  0
  5  8  2  0
  8  9  1  0
  9 10  2  0
 10 11  1  0
 11 12  1  0
 12 13  1  0
 13 14  1  0
 13 15  1  0
 13 16  1  0
 16 17  1  0
 17 18  1  0
 18 19  1  0
 19 20  1  0
 20 21  1  0
 10  3  1  0
 21 16  1  0
M  END
$$$$
