
     RDKit          3D

 17 18  0  0  0  0  0  0  0  0999 V2000
   39.2859   81.9963   52.2763 C   0  0  0  0  0  0  0  0  0  0  0  0
   38.1653   81.2260   52.7844 N   0  0  0  0  0  0  0  0  0  0  0  0
   38.2305   80.3199   53.7635 C   0  0  0  0  0  0  0  0  0  0  0  0
   36.9535   79.8405   53.9214 C   0  0  0  0  0  0  0  0  0  0  0  0
   36.1677   80.4756   53.0319 N   0  0  0  0  0  0  0  0  0  0  0  0
   36.8987   81.3385   52.3171 C   0  0  0  0  0  0  0  0  0  0  0  0
   36.3653   82.4380   50.9995 S   0  0  0  0  0  0  0  0  0  0  0  0
   35.0174   81.7333   50.0670 C   0  0  0  0  0  0  0  0  0  0  0  0
   33.9302   82.6631   49.6701 C   0  0  0  0  0  0  0  0  0  0  0  0
   33.5172   82.2145   48.3774 O   0  0  0  0  0  0  0  0  0  0  0  0
   32.6919   82.6128   50.4678 C   0  0  0  0  0  0  0  0  0  0  0  0
   32.5148   83.2635   51.6499 C   0  0  0  0  0  0  0  0  0  0  0  0
   31.2758   83.1218   52.2886 C   0  0  0  0  0  0  0  0  0  0  0  0
   30.2575   82.3580   51.7611 C   0  0  0  0  0  0  0  0  0  0  0  0
   28.5742   82.1881   52.6674 Br  0  0  0  0  0  0  0  0  0  0  0  0
   30.4378   81.6989   50.5635 C   0  0  0  0  0  0  0  0  0  0  0  0
   31.6512   81.8335   49.9314 C   0  0  0  0  0  0  0  0  0  0  0  0
  1  2  1  0
  2  3  1  0
  3  4  2  0
  4  5  1  0
  5  6  2  0
  6  7  1  0
  7  8  1  0
  8  9  1  0
  9 10  1  0
  9 11  1  0
 11 12  2  0
 12 13  1  0
 13 14  2  0
 14 15  1  0
 14 16  1  0
 16 17  2  0
  6  2  1  0
 17 11  1  0
M  END
$$$$
