
     RDKit          3D

 26 27  0  0  0  0  0  0  0  0999 V2000
   14.5329   46.6837   17.0427 C   0  0  0  0  0  0  0  0  0  0  0  0
   15.8523   47.3851   17.2205 C   0  0  0  0  0  0  0  0  0  0  0  0
   15.6591   48.8546   17.5761 C   0  0  0  0  0  0  0  0  0  0  0  0
   14.9077   49.5827   16.5110 C   0  0  0  0  0  0  0  0  0  0  0  0
   14.6982   51.0111   16.8745 C   0  0  0  0  0  0  0  0  0  0  0  0
   15.9799   51.7428   17.0708 C   0  0  0  0  0  0  0  0  0  0  0  0
   16.8088   51.6964   15.8189 C   0  0  0  0  0  0  0  0  0  0  0  0
   16.2248   52.2368   14.7115 O   0  0  0  0  0  0  0  0  0  0  0  0
   15.8215   53.5003   14.3966 C   0  0  0  0  0  0  0  0  0  0  0  0
   15.9374   54.6244   15.1713 C   0  0  0  0  0  0  0  0  0  0  0  0
   15.5041   55.8899   14.8005 C   0  0  0  0  0  0  0  0  0  0  0  0
   14.9142   56.0486   13.5709 C   0  0  0  0  0  0  0  0  0  0  0  0
   14.4544   57.3071   13.1380 N   0  0  0  0  0  4  0  0  0  0  0  0
   15.1332   58.4675   13.2449 C   0  0  0  0  0  0  0  0  0  0  0  0
   16.4895   58.6901   13.8282 C   0  0  0  0  0  0  0  0  0  0  0  0
   14.3025   59.4225   12.6953 C   0  0  0  0  0  0  0  0  0  0  0  0
   14.5083   60.7970   12.5475 C   0  0  0  0  0  0  0  0  0  0  0  0
   13.5308   61.5730   11.9621 C   0  0  0  0  0  0  0  0  0  0  0  0
   12.3807   60.9513   11.5438 C   0  0  0  0  0  0  0  0  0  0  0  0
   12.2046   59.5996   11.7013 C   0  0  0  0  0  0  0  0  0  0  0  0
   13.1653   58.8383   12.2764 N   0  0  0  0  0  0  0  0  0  0  0  0
   13.2634   57.5267   12.5526 C   0  0  0  0  0  0  0  0  0  0  0  0
   12.1951   56.5103   12.2415 C   0  0  0  0  0  0  0  0  0  0  0  0
   14.7818   54.9392   12.7645 C   0  0  0  0  0  0  0  0  0  0  0  0
   15.2150   53.6952   13.1461 C   0  0  0  0  0  0  0  0  0  0  0  0
   14.9199   54.1880   14.5840 Br  0  0  0  0  0 15  0  0  0  0  0  0
  1  2  1  0
  2  3  1  0
  3  4  1  0
  4  5  1  0
  5  6  1  0
  6  7  1  0
  7  8  1  0
  8  9  1  0
  9 10  2  0
 10 11  1  0
 11 12  2  0
 12 13  1  0
 13 14  1  0
 14 15  1  0
 14 16  2  0
 16 17  1  0
 17 18  2  0
 18 19  1  0
 19 20  2  0
 20 21  1  0
 21 22  1  0
 22 23  1  0
 12 24  1  0
 24 25  2  0
 25  9  1  0
 22 13  2  0
 21 16  1  0
M  CHG  2  13   1  26  -1
M  END
$$$$
