
     RDKit          3D

 20 21  0  0  0  0  0  0  0  0999 V2000
   31.0587   83.6247   54.1088 C   0  0  0  0  0  0  0  0  0  0  0  0
   30.8601   82.6552   53.2359 C   0  0  0  0  0  0  0  0  0  0  0  0
   31.9925   82.0354   52.5555 C   0  0  0  0  0  0  0  0  0  0  0  0
   33.2857   82.7968   52.7248 C   0  0  0  0  0  0  0  0  0  0  0  0
   34.4670   81.9508   52.3846 C   0  0  0  0  0  0  0  0  0  0  0  0
   34.5245   81.2970   51.3068 O   0  0  0  0  0  0  0  0  0  0  0  0
   35.5723   81.8530   53.2667 N   0  0  0  0  0  0  0  0  0  0  0  0
   36.7656   81.0989   53.0620 C   0  0  0  0  0  0  0  0  0  0  0  0
   38.0116   81.8759   53.0266 C   0  0  0  0  0  0  0  0  0  0  0  0
   37.9595   83.2401   53.1547 C   0  0  0  0  0  0  0  0  0  0  0  0
   39.1101   84.0118   53.1351 C   0  0  0  0  0  0  0  0  0  0  0  0
   40.3181   83.3785   52.9831 C   0  0  0  0  0  0  0  0  0  0  0  0
   40.4225   82.0023   52.8495 C   0  0  0  0  0  0  0  0  0  0  0  0
   39.2452   81.2737   52.8753 C   0  0  0  0  0  0  0  0  0  0  0  0
   31.7791   81.8747   51.0942 C   0  0  0  0  0  0  0  0  0  0  0  0
   32.2981   82.8159   50.2229 C   0  0  0  0  0  0  0  0  0  0  0  0
   32.1345   82.7208   48.8525 C   0  0  0  0  0  0  0  0  0  0  0  0
   31.4378   81.6660   48.3192 C   0  0  0  0  0  0  0  0  0  0  0  0
   30.9189   80.7258   49.1813 C   0  0  0  0  0  0  0  0  0  0  0  0
   31.0892   80.8322   50.5452 C   0  0  0  0  0  0  0  0  0  0  0  0
  1  2  2  0
  2  3  1  0
  3  4  1  0
  4  5  1  0
  5  6  2  0
  5  7  1  0
  7  8  1  0
  8  9  1  0
  9 10  2  0
 10 11  1  0
 11 12  2  0
 12 13  1  0
 13 14  2  0
  3 15  1  0
 15 16  2  0
 16 17  1  0
 17 18  2  0
 18 19  1  0
 19 20  2  0
 14  9  1  0
 20 15  1  0
M  END
$$$$
