
     RDKit          3D

 16 17  0  0  0  0  0  0  0  0999 V2000
   13.4329   97.6118   57.9433 C   0  0  0  0  0  0  0  0  0  0  0  0
   12.5438   98.4345   58.7240 N   0  0  0  0  0  4  0  0  0  0  0  0
   11.9928   98.1115   59.8816 C   0  0  0  0  0  0  0  0  0  0  0  0
   12.0568   96.9309   60.7347 C   0  0  0  0  0  0  0  0  0  0  0  0
   11.1669   96.5078   61.5797 C   0  0  0  0  0  0  0  0  0  0  0  0
   11.4745   95.4130   62.5788 C   0  0  2  0  0  0  0  0  0  0  0  0
   12.1274   94.4060   61.8751 O   0  0  0  0  0  0  0  0  0  0  0  0
   10.1788   94.8569   63.1225 C   0  0  0  0  0  0  0  0  0  0  0  0
   10.4905   93.9559   64.1349 O   0  0  0  0  0  0  0  0  0  0  0  0
   11.2534   99.1906   60.2091 O   0  0  0  0  0  0  0  0  0  0  0  0
   11.3356  100.1198   59.3225 C   0  0  0  0  0  0  0  0  0  0  0  0
   10.7823  101.3980   59.1860 C   0  0  0  0  0  0  0  0  0  0  0  0
   11.0674  102.1768   58.0916 C   0  0  0  0  0  0  0  0  0  0  0  0
   11.8977  101.7495   57.0881 C   0  0  0  0  0  0  0  0  0  0  0  0
   12.4442  100.4776   57.2304 C   0  0  0  0  0  0  0  0  0  0  0  0
   12.1676   99.6857   58.3217 C   0  0  0  0  0  0  0  0  0  0  0  0
  1  2  1  0
  2  3  2  0
  3  4  1  0
  4  5  2  0
  5  6  1  0
  6  7  1  6
  6  8  1  0
  8  9  1  0
  3 10  1  0
 10 11  1  0
 11 12  2  0
 12 13  1  0
 13 14  2  0
 14 15  1  0
 15 16  2  0
 16  2  1  0
 16 11  1  0
M  CHG  1   2   1
M  END
$$$$
