
     RDKit          3D

 24 26  0  0  0  0  0  0  0  0999 V2000
   11.8355   62.8642   12.1921 C   0  0  0  0  0  0  0  0  0  0  0  0
   12.1357   61.4053   12.0647 C   0  0  0  0  0  0  0  0  0  0  0  0
   13.3858   60.8252   12.0775 C   0  0  0  0  0  0  0  0  0  0  0  0
   13.2481   59.4594   11.9351 C   0  0  0  0  0  0  0  0  0  0  0  0
   14.3260   58.4807   11.9012 C   0  0  0  0  0  0  0  0  0  0  0  0
   15.1312   58.5668   10.9342 O   0  0  0  0  0  0  0  0  0  0  0  0
   14.5139   57.4643   12.8729 N   0  0  0  0  0  0  0  0  0  0  0  0
   15.8171   56.8919   13.0713 C   0  0  0  0  0  0  0  0  0  0  0  0
   15.7804   55.4223   13.3242 C   0  0  0  0  0  0  0  0  0  0  0  0
   14.4581   54.9064   13.2926 N   0  0  0  0  0  0  0  0  0  0  0  0
   14.3958   53.4884   13.6076 C   0  0  0  0  0  0  0  0  0  0  0  0
   15.0089   53.1608   14.9221 C   0  0  0  0  0  0  0  0  0  0  0  0
   15.6691   51.9020   14.8166 O   0  0  0  0  0  0  0  0  0  0  0  0
   15.7464   51.0346   15.8929 C   0  0  0  0  0  0  0  0  0  0  0  0
   16.9418   50.6768   16.4929 C   0  0  0  0  0  0  0  0  0  0  0  0
   16.9886   49.8083   17.5628 C   0  0  0  0  0  0  0  0  0  0  0  0
   15.8274   49.2686   18.0667 C   0  0  0  0  0  0  0  0  0  0  0  0
   15.8364   48.3991   19.1306 F   0  0  0  0  0  0  0  0  0  0  0  0
   14.6250   49.6098   17.4861 C   0  0  0  0  0  0  0  0  0  0  0  0
   14.5952   50.4944   16.3993 C   0  0  0  0  0  0  0  0  0  0  0  0
   13.5662   55.6206   14.1523 C   0  0  0  0  0  0  0  0  0  0  0  0
   13.3589   57.0417   13.6412 C   0  0  0  0  0  0  0  0  0  0  0  0
   11.9089   59.2768   11.8419 N   0  0  0  0  0  0  0  0  0  0  0  0
   11.2903   60.4205   11.9200 O   0  0  0  0  0  0  0  0  0  0  0  0
  1  2  1  0
  2  3  2  0
  3  4  1  0
  4  5  1  0
  5  6  2  0
  5  7  1  0
  7  8  1  0
  8  9  1  0
  9 10  1  0
 10 11  1  0
 11 12  1  0
 12 13  1  0
 13 14  1  0
 14 15  2  0
 15 16  1  0
 16 17  2  0
 17 18  1  0
 17 19  1  0
 19 20  2  0
 10 21  1  0
 21 22  1  0
  4 23  2  0
 23 24  1  0
 24  2  1  0
 22  7  1  0
 20 14  1  0
M  END
$$$$
