
     RDKit          3D

 27 29  0  0  0  0  0  0  0  0999 V2000
   14.1961   49.4896   19.2228 C   0  0  0  0  0  0  0  0  0  0  0  0
   14.2600   50.4239   18.0746 C   0  0  0  0  0  0  0  0  0  0  0  0
   13.4372   51.3594   17.9123 O   0  0  0  0  0  0  0  0  0  0  0  0
   15.3004   50.2458   17.1212 N   0  0  0  0  0  0  0  0  0  0  0  0
   15.5920   51.2738   16.1906 C   0  0  0  0  0  0  0  0  0  0  0  0
   16.8918   51.4317   15.7070 C   0  0  0  0  0  0  0  0  0  0  0  0
   17.1380   52.4515   14.7954 C   0  0  0  0  0  0  0  0  0  0  0  0
   16.1303   53.2897   14.3745 C   0  0  0  0  0  0  0  0  0  0  0  0
   16.4507   54.3117   13.4409 N   0  0  0  0  0  0  0  0  0  0  0  0
   15.4801   55.2355   12.9637 C   0  0  0  0  0  0  0  0  0  0  0  0
   14.4072   55.3190   13.6144 O   0  0  0  0  0  0  0  0  0  0  0  0
   15.7206   56.0736   11.7413 C   0  0  0  0  0  0  0  0  0  0  0  0
   14.6000   56.9182   11.4818 N   0  0  0  0  0  0  0  0  0  0  0  0
   13.5127   56.5477   10.7892 C   0  0  0  0  0  0  0  0  0  0  0  0
   12.6885   57.6080   10.7611 N   0  0  0  0  0  0  0  0  0  0  0  0
   13.2296   58.6436   11.4211 C   0  0  0  0  0  0  0  0  0  0  0  0
   14.4546   58.1885   11.8782 C   0  0  0  0  0  0  0  0  0  0  0  0
   15.2515   59.0722   12.6126 C   0  0  0  0  0  0  0  0  0  0  0  0
   16.3484   58.6245   13.0069 O   0  0  0  0  0  0  0  0  0  0  0  0
   14.8217   60.3218   12.8560 N   0  0  0  0  0  0  0  0  0  0  0  0
   15.6884   61.2035   13.6253 C   0  0  0  0  0  0  0  0  0  0  0  0
   13.6154   60.7579   12.4015 C   0  0  0  0  0  0  0  0  0  0  0  0
   13.2789   61.9400   12.6676 O   0  0  0  0  0  0  0  0  0  0  0  0
   12.8526   59.9055   11.6961 N   0  0  0  0  0  0  0  0  0  0  0  0
   11.5727   60.3864   11.2206 C   0  0  0  0  0  0  0  0  0  0  0  0
   14.8678   53.0861   14.8858 C   0  0  0  0  0  0  0  0  0  0  0  0
   14.5684   52.1016   15.7825 C   0  0  0  0  0  0  0  0  0  0  0  0
  1  2  1  0
  2  3  2  0
  2  4  1  0
  4  5  1  0
  5  6  2  0
  6  7  1  0
  7  8  2  0
  8  9  1  0
  9 10  1  0
 10 11  2  0
 10 12  1  0
 12 13  1  0
 13 14  1  0
 14 15  2  0
 15 16  1  0
 16 17  2  0
 17 18  1  0
 18 19  2  0
 18 20  1  0
 20 21  1  0
 20 22  1  0
 22 23  2  0
 22 24  1  0
 24 25  1  0
  8 26  1  0
 26 27  2  0
 27  5  1  0
 17 13  1  0
 24 16  1  0
M  END
$$$$
