
     RDKit          3D

 24 26  0  0  0  0  0  0  0  0999 V2000
   14.6223   53.4182   14.6233 C   0  0  0  0  0  0  0  0  0  0  0  0
   15.8490   53.2014   13.8126 C   0  0  0  0  0  0  0  0  0  0  0  0
   16.7304   52.2053   14.1922 C   0  0  0  0  0  0  0  0  0  0  0  0
   17.8711   51.9976   13.4454 C   0  0  0  0  0  0  0  0  0  0  0  0
   18.1117   52.7927   12.3273 C   0  0  0  0  0  0  0  0  0  0  0  0
   17.2118   53.7917   11.9603 C   0  0  0  0  0  0  0  0  0  0  0  0
   17.4909   54.6259   10.7642 C   0  0  0  0  0  0  0  0  0  0  0  0
   16.0712   53.9980   12.7087 C   0  0  0  0  0  0  0  0  0  0  0  0
   15.1147   55.0162   12.3686 N   0  0  0  0  0  0  0  0  0  0  0  0
   15.2803   56.3626   12.7420 C   0  0  0  0  0  0  0  0  0  0  0  0
   16.2230   56.6966   13.4998 O   0  0  0  0  0  0  0  0  0  0  0  0
   14.3797   57.4066   12.2723 C   0  0  0  0  0  0  0  0  0  0  0  0
   13.4183   57.3245   11.3302 N   0  0  0  0  0  0  0  0  0  0  0  0
   12.8328   58.4998   11.2078 N   0  0  0  0  0  0  0  0  0  0  0  0
   13.3655   59.3757   12.0356 N   0  0  0  0  0  0  0  0  0  0  0  0
   12.9866   60.7545   12.1841 C   0  0  0  0  0  0  0  0  0  0  0  0
   11.6626   61.1453   12.1258 C   0  0  0  0  0  0  0  0  0  0  0  0
   11.2577   62.4565   12.2634 C   0  0  0  0  0  0  0  0  0  0  0  0
   12.2122   63.4410   12.4704 C   0  0  0  0  0  0  0  0  0  0  0  0
   11.7687   65.1316   12.6543 Cl  0  0  0  0  0  0  0  0  0  0  0  0
   13.5395   63.0782   12.5326 C   0  0  0  0  0  0  0  0  0  0  0  0
   13.9178   61.7520   12.3909 C   0  0  0  0  0  0  0  0  0  0  0  0
   14.3265   58.7198   12.7056 C   0  0  0  0  0  0  0  0  0  0  0  0
   15.1475   59.3110   13.7020 N   0  0  0  0  0  0  0  0  0  0  0  0
  1  2  1  0
  2  3  2  0
  3  4  1  0
  4  5  2  0
  5  6  1  0
  6  7  1  0
  6  8  2  0
  8  9  1  0
  9 10  1  0
 10 11  2  0
 10 12  1  0
 12 13  1  0
 13 14  2  0
 14 15  1  0
 15 16  1  0
 16 17  2  0
 17 18  1  0
 18 19  2  0
 19 20  1  0
 19 21  1  0
 21 22  2  0
 15 23  1  0
 23 24  1  0
  8  2  1  0
 23 12  2  0
 22 16  1  0
M  END
$$$$
