
     RDKit          3D

 33 37  0  0  0  0  0  0  0  0999 V2000
   13.8401  100.5590   57.2129 C   0  0  0  0  0  0  0  0  0  0  0  0
   13.3088   99.6838   56.1589 C   0  0  0  0  0  0  0  0  0  0  0  0
   14.1343   99.1909   55.1450 C   0  0  0  0  0  0  0  0  0  0  0  0
   15.4429   99.5275   55.1372 F   0  0  0  0  0  0  0  0  0  0  0  0
   13.6388   98.3726   54.1590 C   0  0  0  0  0  0  0  0  0  0  0  0
   12.3034   98.0397   54.1812 C   0  0  0  0  0  0  0  0  0  0  0  0
   11.8387   97.2322   53.1995 F   0  0  0  0  0  0  0  0  0  0  0  0
   11.4698   98.5304   55.1950 C   0  0  0  0  0  0  0  0  0  0  0  0
   11.9749   99.3495   56.1786 C   0  0  0  0  0  0  0  0  0  0  0  0
   11.1046   99.8514   57.2218 C   0  0  0  0  0  0  0  0  0  0  0  0
   10.1040  100.7745   56.9980 C   0  0  0  0  0  0  0  0  0  0  0  0
    9.3270  101.1842   58.0886 C   0  0  0  0  0  0  0  0  0  0  0  0
    9.5270  100.7091   59.3305 N   0  0  0  0  0  0  0  0  0  0  0  0
   10.5095   99.8002   59.5607 C   0  0  0  0  0  0  0  0  0  0  0  0
   10.9337   99.1624   60.6683 N   0  0  0  0  0  0  0  0  0  0  0  0
   11.9682   98.3331   60.3822 C   0  0  0  0  0  0  0  0  0  0  0  0
   12.7034   97.4715   61.2966 C   0  0  0  0  0  0  0  0  0  0  0  0
   12.4700   97.3811   62.5712 C   0  0  0  0  0  0  0  0  0  0  0  0
   13.2123   96.5067   63.5137 C   0  0  0  0  0  0  0  0  0  0  0  0
   14.0051   95.5534   62.8427 N   0  0  0  0  0  0  0  0  0  0  0  0
   14.2804   94.3248   63.5771 C   0  0  0  0  0  0  0  0  0  0  0  0
   15.4971   93.6584   63.0000 C   0  0  0  0  0  0  0  0  0  0  0  0
   14.5987   94.7702   64.9850 C   0  0  0  0  0  0  0  0  0  0  0  0
   13.1511   93.3813   63.5479 C   0  0  0  0  0  0  0  0  0  0  0  0
   13.2083   92.3697   64.5507 N   0  0  0  0  0  0  0  0  0  0  0  0
   12.3450   92.3877   65.6359 C   0  0  0  0  0  0  0  0  0  0  0  0
   12.5118   91.0061   66.2958 C   0  0  0  0  0  0  0  0  0  0  0  0
   12.9373   90.1464   65.1540 C   0  0  0  0  0  0  0  0  0  0  0  0
   13.0640   91.0440   63.9554 C   0  0  0  0  0  0  0  0  0  0  0  0
   13.6459   95.2880   61.4691 C   0  0  0  0  0  0  0  0  0  0  0  0
   13.7971   96.6320   60.7418 C   0  0  0  0  0  0  0  0  0  0  0  0
   12.1776   98.4826   59.0197 C   0  0  0  0  0  0  0  0  0  0  0  0
   11.2801   99.3879   58.5031 C   0  0  0  0  0  0  0  0  0  0  0  0
  1  2  1  0
  2  3  2  0
  3  4  1  0
  3  5  1  0
  5  6  2  0
  6  7  1  0
  6  8  1  0
  8  9  2  0
  9 10  1  0
 10 11  2  0
 11 12  1  0
 12 13  2  0
 13 14  1  0
 14 15  1  0
 15 16  1  0
 16 17  1  0
 17 18  2  0
 18 19  1  0
 19 20  1  0
 20 21  1  0
 21 22  1  0
 21 23  1  0
 21 24  1  0
 24 25  1  0
 25 26  1  0
 26 27  1  0
 27 28  1  0
 28 29  1  0
 20 30  1  0
 30 31  1  0
 16 32  2  0
 32 33  1  0
  9  2  1  0
 33 10  1  0
 33 14  2  0
 31 17  1  0
 29 25  1  0
M  END
$$$$
