
     RDKit          3D

 23 26  0  0  0  0  0  0  0  0999 V2000
   14.5941   47.1176   19.9261 C   0  0  0  0  0  0  0  0  0  0  0  0
   15.2639   48.0925   19.0499 C   0  0  0  0  0  0  0  0  0  0  0  0
   16.6449   48.1569   18.9617 C   0  0  0  0  0  0  0  0  0  0  0  0
   17.2741   49.0366   18.1705 N   0  0  0  0  0  0  0  0  0  0  0  0
   16.5452   49.9062   17.4189 C   0  0  0  0  0  0  0  0  0  0  0  0
   17.1847   50.8442   16.5760 N   0  0  0  0  0  0  0  0  0  0  0  0
   18.5690   50.8081   16.1982 C   0  0  0  0  0  0  0  0  0  0  0  0
   18.5637   51.4977   14.8546 C   0  0  0  0  0  0  0  0  0  0  0  0
   17.5941   52.6580   15.1157 C   0  0  0  0  0  0  0  0  0  0  0  0
   17.0902   53.2571   13.9638 N   0  0  0  0  0  0  0  0  0  0  0  0
   17.7843   53.1552   12.7617 C   0  0  0  0  0  0  0  0  0  0  0  0
   18.0905   54.5552   12.2354 C   0  0  0  0  0  0  0  0  0  0  0  0
   16.7769   55.2028   11.9789 C   0  0  0  0  0  0  0  0  0  0  0  0
   16.6199   56.0398   10.8892 C   0  0  0  0  0  0  0  0  0  0  0  0
   15.3969   56.6255   10.6746 C   0  0  0  0  0  0  0  0  0  0  0  0
   14.3427   56.3744   11.5432 C   0  0  0  0  0  0  0  0  0  0  0  0
   14.5336   55.5339   12.6210 C   0  0  0  0  0  0  0  0  0  0  0  0
   15.7569   54.9265   12.8660 C   0  0  0  0  0  0  0  0  0  0  0  0
   15.9251   54.0300   14.0329 C   0  0  0  0  0  0  0  0  0  0  0  0
   16.5411   51.9779   15.9695 C   0  0  0  0  0  0  0  0  0  0  0  0
   15.1936   49.8367   17.5111 N   0  0  0  0  0  0  0  0  0  0  0  0
   14.5222   48.9808   18.2822 C   0  0  0  0  0  0  0  0  0  0  0  0
   13.0323   48.9434   18.3491 C   0  0  0  0  0  0  0  0  0  0  0  0
  1  2  1  0
  2  3  2  0
  3  4  1  0
  4  5  2  0
  5  6  1  0
  6  7  1  0
  7  8  1  0
  8  9  1  0
  9 10  1  0
 10 11  1  0
 11 12  1  0
 12 13  1  0
 13 14  2  0
 14 15  1  0
 15 16  2  0
 16 17  1  0
 17 18  2  0
 18 19  1  0
  9 20  1  0
  5 21  1  0
 21 22  2  0
 22 23  1  0
 22  2  1  0
 20  6  1  0
 19 10  1  0
 18 13  1  0
M  END
$$$$
