
     RDKit          3D

 32 35  0  0  0  0  0  0  0  0999 V2000
   17.4928   93.8036   65.6342 C   0  0  0  0  0  0  0  0  0  0  0  0
   17.1470   93.5994   64.2783 O   0  0  0  0  0  0  0  0  0  0  0  0
   15.8461   93.8914   63.8936 C   0  0  0  0  0  0  0  0  0  0  0  0
   15.1780   93.0015   63.0794 C   0  0  0  0  0  0  0  0  0  0  0  0
   13.8732   93.2703   62.6795 C   0  0  0  0  0  0  0  0  0  0  0  0
   13.2189   94.4165   63.0789 C   0  0  0  0  0  0  0  0  0  0  0  0
   11.8810   94.6297   62.6377 N   0  0  0  0  0  0  0  0  0  0  0  0
   10.7628   94.6957   63.3947 C   0  0  0  0  0  0  0  0  0  0  0  0
    9.6473   94.9141   62.6282 C   0  0  0  0  0  0  0  0  0  0  0  0
    8.2631   95.0389   63.1148 C   0  0  0  0  0  0  0  0  0  0  0  0
    7.2326   95.2989   62.2350 C   0  0  0  0  0  0  0  0  0  0  0  0
    5.9167   95.4284   62.6369 C   0  0  0  0  0  0  0  0  0  0  0  0
    5.6319   95.2897   63.9774 C   0  0  0  0  0  0  0  0  0  0  0  0
    6.6653   95.0273   64.8699 C   0  0  0  0  0  0  0  0  0  0  0  0
    7.9675   94.9037   64.4400 C   0  0  0  0  0  0  0  0  0  0  0  0
   10.1070   94.9812   61.3731 N   0  0  0  0  0  0  0  0  0  0  0  0
   11.4393   94.8139   61.3561 C   0  0  0  0  0  0  0  0  0  0  0  0
   12.5055   94.8316   59.9396 S   0  0  0  0  0  0  0  0  0  0  0  0
   11.8599   95.6737   58.5159 C   0  0  0  0  0  0  0  0  0  0  0  0
   11.9601   97.1446   58.5401 C   0  0  0  0  0  0  0  0  0  0  0  0
   12.7875   97.7374   59.3087 O   0  0  0  0  0  0  0  0  0  0  0  0
   11.1479   97.9713   57.7186 N   0  0  0  0  0  0  0  0  0  0  0  0
   11.7146   99.0096   56.9150 C   0  0  0  0  0  0  0  0  0  0  0  0
   10.9254   99.6699   55.9941 C   0  0  0  0  0  0  0  0  0  0  0  0
   11.4470  100.6913   55.1966 C   0  0  0  0  0  0  0  0  0  0  0  0
   12.7643  101.0578   55.3171 C   0  0  0  0  0  0  0  0  0  0  0  0
   13.3385  102.1481   54.4739 C   0  0  0  0  0  0  0  0  0  0  0  0
   13.5665  100.4048   56.2357 C   0  0  0  0  0  0  0  0  0  0  0  0
   14.9908  100.7989   56.3703 C   0  0  0  0  0  0  0  0  0  0  0  0
   13.0279   99.3912   57.0198 C   0  0  0  0  0  0  0  0  0  0  0  0
   13.9030   95.2921   63.8915 C   0  0  0  0  0  0  0  0  0  0  0  0
   15.2004   95.0336   64.2942 C   0  0  0  0  0  0  0  0  0  0  0  0
  1  2  1  0
  2  3  1  0
  3  4  2  0
  4  5  1  0
  5  6  2  0
  6  7  1  0
  7  8  1  0
  8  9  2  0
  9 10  1  0
 10 11  2  0
 11 12  1  0
 12 13  2  0
 13 14  1  0
 14 15  2  0
  9 16  1  0
 16 17  2  0
 17 18  1  0
 18 19  1  0
 19 20  1  0
 20 21  2  0
 20 22  1  0
 22 23  1  0
 23 24  2  0
 24 25  1  0
 25 26  2  0
 26 27  1  0
 26 28  1  0
 28 29  1  0
 28 30  2  0
  6 31  1  0
 31 32  2  0
 32  3  1  0
 17  7  1  0
 30 23  1  0
 15 10  1  0
M  END
$$$$
