
     RDKit          3D

 23 25  0  0  0  0  0  0  0  0999 V2000
   17.1365   59.1471   14.2626 C   0  0  0  0  0  0  0  0  0  0  0  0
   15.7923   59.1324   13.6459 C   0  0  0  0  0  0  0  0  0  0  0  0
   14.9905   60.2128   13.7990 N   0  0  0  0  0  0  0  0  0  0  0  0
   13.7576   60.3043   13.2845 C   0  0  0  0  0  0  0  0  0  0  0  0
   13.2540   59.2601   12.5572 C   0  0  0  0  0  0  0  0  0  0  0  0
   14.0219   58.1037   12.3523 C   0  0  0  0  0  0  0  0  0  0  0  0
   13.3891   57.0463   11.5620 C   0  0  0  0  0  0  0  0  0  0  0  0
   15.2740   58.0792   12.9080 C   0  0  0  0  0  0  0  0  0  0  0  0
   16.1061   56.8968   12.7341 C   0  0  0  0  0  0  0  0  0  0  0  0
   15.7205   55.7889   13.6830 C   0  0  0  0  0  0  0  0  0  0  0  0
   14.7312   55.8554   14.4322 O   0  0  0  0  0  0  0  0  0  0  0  0
   16.5087   54.6088   13.7362 N   0  0  0  0  0  0  0  0  0  0  0  0
   16.1298   53.4170   14.4074 C   0  0  0  0  0  0  0  0  0  0  0  0
   17.0367   52.3749   14.5803 C   0  0  0  0  0  0  0  0  0  0  0  0
   16.6373   51.2272   15.2449 C   0  0  0  0  0  0  0  0  0  0  0  0
   15.4052   51.0657   15.7372 N   0  0  0  0  0  0  0  0  0  0  0  0
   14.5108   52.0554   15.5839 C   0  0  0  0  0  0  0  0  0  0  0  0
   14.8671   53.2153   14.9281 C   0  0  0  0  0  0  0  0  0  0  0  0
   11.9659   59.6138   12.1462 C   0  0  0  0  0  0  0  0  0  0  0  0
   11.2178   58.8992   11.4671 O   0  0  0  0  0  0  0  0  0  0  0  0
   11.7444   60.8575   12.6417 N   0  0  0  0  0  0  0  0  0  0  0  0
   12.8148   61.2611   13.3173 N   0  0  0  0  0  0  0  0  0  0  0  0
   12.9010   62.5475   13.9733 C   0  0  0  0  0  0  0  0  0  0  0  0
  1  2  1  0
  2  3  2  0
  3  4  1  0
  4  5  2  0
  5  6  1  0
  6  7  1  0
  6  8  2  0
  8  9  1  0
  9 10  1  0
 10 11  2  0
 10 12  1  0
 12 13  1  0
 13 14  2  0
 14 15  1  0
 15 16  2  0
 16 17  1  0
 17 18  2  0
  5 19  1  0
 19 20  2  0
 19 21  1  0
 21 22  1  0
 22 23  1  0
  8  2  1  0
 18 13  1  0
 22  4  1  0
M  END
$$$$
