
     RDKit          3D

 14 15  0  0  0  0  0  0  0  0999 V2000
   35.5046   83.0698   52.0576 C   0  0  0  0  0  0  0  0  0  0  0  0
   35.5347   82.3514   50.7562 C   0  0  0  0  0  0  0  0  0  0  0  0
   36.6758   82.0223   50.0490 C   0  0  0  0  0  0  0  0  0  0  0  0
   36.2355   81.3888   48.9473 N   0  0  0  0  0  0  0  0  0  0  0  0
   34.9210   81.3097   48.9339 N   0  0  0  0  0  0  0  0  0  0  0  0
   34.0568   80.7038   47.9240 C   0  0  0  0  0  0  0  0  0  0  0  0
   34.4389   81.8976   50.0440 C   0  0  0  0  0  0  0  0  0  0  0  0
   33.0750   82.0750   50.4991 C   0  0  0  0  0  0  0  0  0  0  0  0
   32.6638   81.7284   51.7692 C   0  0  0  0  0  0  0  0  0  0  0  0
   31.3808   81.8841   52.2289 C   0  0  0  0  0  0  0  0  0  0  0  0
   30.4356   82.4126   51.3955 C   0  0  0  0  0  0  0  0  0  0  0  0
   28.6322   82.6573   51.9686 Br  0  0  0  0  0  0  0  0  0  0  0  0
   30.7818   82.7787   50.1156 C   0  0  0  0  0  0  0  0  0  0  0  0
   32.0846   82.6126   49.6718 C   0  0  0  0  0  0  0  0  0  0  0  0
  1  2  1  0
  2  3  1  0
  3  4  2  0
  4  5  1  0
  5  6  1  0
  5  7  1  0
  7  8  1  0
  8  9  2  0
  9 10  1  0
 10 11  2  0
 11 12  1  0
 11 13  1  0
 13 14  2  0
  7  2  2  0
 14  8  1  0
M  END
$$$$
