
     RDKit          3D

 18 19  0  0  0  0  0  0  0  0999 V2000
   10.7487   98.0301   61.1556 C   0  0  0  0  0  0  0  0  0  0  0  0
   11.7697   97.9343   60.0041 C   0  0  0  0  0  0  0  0  0  0  0  0
   13.0820   97.3709   60.5712 C   0  0  0  0  0  0  0  0  0  0  0  0
   12.0760   99.3011   59.5289 C   0  0  0  0  0  0  0  0  0  0  0  0
   12.7846  100.0289   60.2761 O   0  0  0  0  0  0  0  0  0  0  0  0
   11.6019   99.7828   58.2950 N   0  0  0  0  0  0  0  0  0  0  0  0
   10.9129   98.9463   57.3788 C   0  0  0  0  0  0  0  0  0  0  0  0
   11.4509   98.9995   55.9804 C   0  0  0  0  0  0  0  0  0  0  0  0
   11.7426  100.3971   55.5023 C   0  0  0  0  0  0  0  0  0  0  0  0
   12.6432  100.2821   54.4352 O   0  0  0  0  0  0  0  0  0  0  0  0
   13.9716  100.5814   54.3966 C   0  0  0  0  0  0  0  0  0  0  0  0
   14.7571  100.0797   55.4441 C   0  0  0  0  0  0  0  0  0  0  0  0
   16.1028  100.3262   55.4944 C   0  0  0  0  0  0  0  0  0  0  0  0
   16.6495  101.0827   54.4799 C   0  0  0  0  0  0  0  0  0  0  0  0
   15.9015  101.5645   53.4762 N   0  0  0  0  0  0  0  0  0  0  0  0
   14.5750  101.3266   53.4185 C   0  0  0  0  0  0  0  0  0  0  0  0
   12.3848  101.2810   56.5306 C   0  0  0  0  0  0  0  0  0  0  0  0
   11.8133  101.1522   57.9186 C   0  0  0  0  0  0  0  0  0  0  0  0
  1  2  1  0
  2  3  1  0
  2  4  1  0
  4  5  2  0
  4  6  1  0
  6  7  1  0
  7  8  1  0
  8  9  1  0
  9 10  1  0
 10 11  1  0
 11 12  2  0
 12 13  1  0
 13 14  2  0
 14 15  1  0
 15 16  2  0
  9 17  1  0
 17 18  1  0
 18  6  1  0
 16 11  1  0
M  END
$$$$
