
     RDKit          3D

 37 41  0  0  0  0  0  0  0  0999 V2000
    8.7303  101.4592   57.8965 C   0  0  0  0  0  0  0  0  0  0  0  0
   10.0307  100.8987   57.7946 O   0  0  0  0  0  0  0  0  0  0  0  0
   10.4892  100.0024   58.7759 C   0  0  0  0  0  0  0  0  0  0  0  0
    9.8236   99.8696   59.9730 C   0  0  0  0  0  0  0  0  0  0  0  0
   10.2990   98.9823   60.9129 C   0  0  0  0  0  0  0  0  0  0  0  0
    9.6475   98.8593   62.0791 N   0  0  0  0  0  0  0  0  0  0  0  0
   10.1117   97.9980   62.9949 C   0  0  0  0  0  0  0  0  0  0  0  0
   11.1957   97.2760   62.7602 N   0  0  0  0  0  0  0  0  0  0  0  0
   11.8949   97.3588   61.5990 C   0  0  0  0  0  0  0  0  0  0  0  0
   13.0408   96.5808   61.3840 N   0  0  0  0  0  0  0  0  0  0  0  0
   13.2792   95.4893   62.2618 C   0  0  0  0  0  0  0  0  0  0  0  0
   12.5233   95.3671   63.3974 C   0  0  0  0  0  0  0  0  0  0  0  0
   12.7503   94.3241   64.2407 C   0  0  0  0  0  0  0  0  0  0  0  0
   13.7306   93.4148   63.9396 C   0  0  0  0  0  0  0  0  0  0  0  0
   13.9664   92.3647   64.7818 F   0  0  0  0  0  0  0  0  0  0  0  0
   14.4957   93.5263   62.8031 C   0  0  0  0  0  0  0  0  0  0  0  0
   15.7425   92.3824   62.4052 Cl  0  0  0  0  0  0  0  0  0  0  0  0
   14.2582   94.5852   61.9564 C   0  0  0  0  0  0  0  0  0  0  0  0
   14.9924   94.7401   60.8141 F   0  0  0  0  0  0  0  0  0  0  0  0
   11.4437   98.2366   60.6344 C   0  0  0  0  0  0  0  0  0  0  0  0
   12.1087   98.3693   59.4383 C   0  0  0  0  0  0  0  0  0  0  0  0
   11.6212   99.2702   58.4909 C   0  0  0  0  0  0  0  0  0  0  0  0
   12.2617   99.4571   57.2294 N   0  0  0  0  0  0  0  0  0  0  0  0
   13.7003   99.3500   57.0996 C   0  0  0  0  0  0  0  0  0  0  0  0
   14.2793   98.7776   58.0096 O   0  0  0  0  0  0  0  0  0  0  0  0
   14.3433   99.9028   55.9514 C   0  0  0  0  0  0  0  0  0  0  0  0
   14.1125   99.5874   54.7281 C   0  0  0  0  0  0  0  0  0  0  0  0
   15.0859   99.5396   53.6472 C   0  0  0  0  0  0  0  0  0  0  0  0
   15.3846  100.8997   53.1693 N   0  0  0  0  0  0  0  0  0  0  0  0
   14.8199  101.0416   51.8658 C   0  0  0  0  0  0  0  0  0  0  0  0
   15.8980  101.1497   50.7949 C   0  0  0  0  0  0  0  0  0  0  0  0
   16.8006  100.0445   50.9800 N   0  0  0  0  0  0  0  0  0  0  0  0
   17.6674   99.7786   49.8776 C   0  0  0  0  0  0  0  0  0  0  0  0
   17.0748  100.0909   48.5087 C   0  0  0  0  0  0  0  0  0  0  0  0
   18.2788  100.8187   49.0477 C   0  0  0  0  0  0  0  0  0  0  0  0
   17.4901  100.0986   52.2513 C   0  0  0  0  0  0  0  0  0  0  0  0
   16.8280  101.0746   53.2033 C   0  0  0  0  0  0  0  0  0  0  0  0
  1  2  1  0
  2  3  1  0
  3  4  2  0
  4  5  1  0
  5  6  2  0
  6  7  1  0
  7  8  2  0
  8  9  1  0
  9 10  1  0
 10 11  1  0
 11 12  2  0
 12 13  1  0
 13 14  2  0
 14 15  1  0
 14 16  1  0
 16 17  1  0
 16 18  2  0
 18 19  1  0
  9 20  2  0
 20 21  1  0
 21 22  2  0
 22 23  1  0
 23 24  1  0
 24 25  2  0
 24 26  1  0
 26 27  2  3
 27 28  1  0
 28 29  1  0
 29 30  1  0
 30 31  1  0
 31 32  1  0
 32 33  1  0
 33 34  1  0
 34 35  1  0
 32 36  1  0
 36 37  1  0
 22  3  1  0
 37 29  1  0
 20  5  1  0
 35 33  1  0
 18 11  1  0
M  END
$$$$
