
     RDKit          3D

 31 35  0  0  0  0  0  0  0  0999 V2000
   39.2148   84.5091   46.5078 C   0  0  0  0  0  0  0  0  0  0  0  0
   39.5574   83.3627   47.3906 C   0  0  0  0  0  0  0  0  0  0  0  0
   40.8300   82.8120   47.3967 C   0  0  0  0  0  0  0  0  0  0  0  0
   41.1452   81.7474   48.2176 C   0  0  0  0  0  0  0  0  0  0  0  0
   40.2039   81.1946   49.0607 C   0  0  0  0  0  0  0  0  0  0  0  0
   40.5065   80.0916   49.9201 N   0  0  0  0  0  0  0  0  0  0  0  0
   40.5267   78.8349   49.5265 N   0  0  0  0  0  0  0  0  0  0  0  0
   40.8464   78.0202   50.5683 C   0  0  0  0  0  0  0  0  0  0  0  0
   41.0267   78.8546   51.6485 C   0  0  0  0  0  0  0  0  0  0  0  0
   40.8068   80.0977   51.1921 N   0  0  0  0  0  0  0  0  0  0  0  0
   38.9295   81.7575   49.0446 C   0  0  0  0  0  0  0  0  0  0  0  0
   37.9588   81.1510   49.9462 C   0  0  0  0  0  0  0  0  0  0  0  0
   37.4516   80.0240   49.7298 O   0  0  0  0  0  0  0  0  0  0  0  0
   37.5622   81.8498   51.1182 N   0  0  0  0  0  0  0  0  0  0  0  0
   37.8417   83.2298   51.4689 C   0  0  0  0  0  0  0  0  0  0  0  0
   38.2307   83.0740   52.9329 C   0  0  0  0  0  0  0  0  0  0  0  0
   37.1405   82.1636   53.4415 C   0  0  2  0  0  0  0  0  0  0  0  0
   37.6429   81.3094   54.5848 C   0  0  0  0  0  0  0  0  0  0  0  0
   36.7813   81.3296   52.2345 C   0  0  1  0  0  0  0  0  0  0  0  0
   35.3297   81.5064   52.0001 C   0  0  0  0  0  0  0  0  0  0  0  0
   34.2895   80.9305   52.6181 N   0  0  0  0  0  0  0  0  0  0  0  0
   33.1164   81.3727   52.0923 C   0  0  0  0  0  0  0  0  0  0  0  0
   31.7924   81.1053   52.3573 C   0  0  0  0  0  0  0  0  0  0  0  0
   30.8030   81.7347   51.6265 C   0  0  0  0  0  0  0  0  0  0  0  0
   29.1161   81.3637   51.9983 Cl  0  0  0  0  0  0  0  0  0  0  0  0
   31.1262   82.6323   50.6295 C   0  0  0  0  0  0  0  0  0  0  0  0
   30.0342   83.2930   49.8608 C   0  0  0  0  0  0  0  0  0  0  0  0
   32.4617   82.8743   50.3932 C   0  0  0  0  0  0  0  0  0  0  0  0
   33.4687   82.2632   51.1039 C   0  0  0  0  0  0  0  0  0  0  0  0
   34.8053   82.3224   51.0723 N   0  0  0  0  0  0  0  0  0  0  0  0
   38.6055   82.8254   48.2241 C   0  0  0  0  0  0  0  0  0  0  0  0
  1  2  1  0
  2  3  2  0
  3  4  1  0
  4  5  2  0
  5  6  1  0
  6  7  1  0
  7  8  2  0
  8  9  1  0
  9 10  2  0
  5 11  1  0
 11 12  1  0
 12 13  2  0
 12 14  1  0
 14 15  1  0
 15 16  1  0
 16 17  1  0
 17 18  1  1
 17 19  1  0
 19 20  1  6
 20 21  2  0
 21 22  1  0
 22 23  2  0
 23 24  1  0
 24 25  1  0
 24 26  2  0
 26 27  1  0
 26 28  1  0
 28 29  2  0
 29 30  1  0
 11 31  2  0
 31  2  1  0
 10  6  1  0
 19 14  1  0
 30 20  1  0
 29 22  1  0
M  END
$$$$
