
     RDKit          3D

 21 23  0  0  0  0  0  0  0  0999 V2000
   15.5121   59.3522   14.6491 C   0  0  0  0  0  0  0  0  0  0  0  0
   15.2965   58.2808   13.7144 N   0  0  0  0  0  0  0  0  0  0  0  0
   14.8553   58.7663   12.4286 C   0  0  0  0  0  0  0  0  0  0  0  0
   13.4024   58.5830   12.2499 C   0  0  0  0  0  0  0  0  0  0  0  0
   12.5963   57.9070   13.1456 C   0  0  0  0  0  0  0  0  0  0  0  0
   11.2377   57.7704   12.9185 C   0  0  0  0  0  0  0  0  0  0  0  0
   10.6795   58.3156   11.7834 C   0  0  0  0  0  0  0  0  0  0  0  0
   11.4656   58.9698   10.9183 N   0  0  0  0  0  0  0  0  0  0  0  0
   12.7910   59.1078   11.1319 C   0  0  0  0  0  0  0  0  0  0  0  0
   16.3817   57.3638   13.6123 C   0  0  0  0  0  0  0  0  0  0  0  0
   16.1915   56.1461   14.4519 C   0  0  0  0  0  0  0  0  0  0  0  0
   15.8036   56.1274   15.7650 N   0  0  0  0  0  0  0  0  0  0  0  0
   15.7530   54.8635   16.1130 N   0  0  0  0  0  0  0  0  0  0  0  0
   16.0889   54.1193   15.0817 N   0  0  0  0  0  0  0  0  0  0  0  0
   16.3707   54.8861   14.0215 N   0  0  0  0  0  0  0  0  0  0  0  0
   16.7672   54.4276   12.7257 C   0  0  0  0  0  0  0  0  0  0  0  0
   16.2561   53.2966   12.1249 C   0  0  0  0  0  0  0  0  0  0  0  0
   16.6545   52.8776   10.8736 C   0  0  0  0  0  0  0  0  0  0  0  0
   17.5944   53.5848   10.1634 C   0  0  0  0  0  0  0  0  0  0  0  0
   18.1208   54.7192   10.7418 C   0  0  0  0  0  0  0  0  0  0  0  0
   17.7104   55.1312   12.0047 C   0  0  0  0  0  0  0  0  0  0  0  0
  1  2  1  0
  2  3  1  0
  3  4  1  0
  4  5  2  0
  5  6  1  0
  6  7  2  0
  7  8  1  0
  8  9  2  0
  2 10  1  0
 10 11  1  0
 11 12  2  0
 12 13  1  0
 13 14  2  0
 14 15  1  0
 15 16  1  0
 16 17  2  0
 17 18  1  0
 18 19  2  0
 19 20  1  0
 20 21  2  0
  9  4  1  0
 15 11  1  0
 21 16  1  0
M  END
$$$$
