
     RDKit          3D

 31 35  0  0  0  0  0  0  0  0999 V2000
   15.7340   48.7436   16.4121 C   0  0  0  0  0  0  0  0  0  0  0  0
   15.7158   50.0398   17.2249 C   0  0  0  0  0  0  0  0  0  0  0  0
   15.3104   49.7736   18.6493 C   0  0  0  0  0  0  0  0  0  0  0  0
   14.1241   50.3808   18.9827 O   0  0  0  0  0  0  0  0  0  0  0  0
   13.1439   50.1222   18.0043 C   0  0  0  0  0  0  0  0  0  0  0  0
   13.4698   51.0335   16.8338 C   0  0  0  0  0  0  0  0  0  0  0  0
   14.8830   51.0316   16.5793 N   0  0  0  0  0  0  0  0  0  0  0  0
   15.4855   51.9754   15.7120 C   0  0  0  0  0  0  0  0  0  0  0  0
   16.7696   51.8550   15.3470 N   0  0  0  0  0  0  0  0  0  0  0  0
   17.3304   52.7505   14.5274 C   0  0  0  0  0  0  0  0  0  0  0  0
   18.6665   52.5776   14.1548 N   0  0  0  0  0  0  0  0  0  0  0  0
   19.5246   53.6120   13.6151 C   0  0  0  0  0  0  0  0  0  0  0  0
   20.8956   53.4274   14.1450 C   0  0  0  0  0  0  0  0  0  0  0  0
   21.0506   52.6036   15.2208 O   0  0  0  0  0  0  0  0  0  0  0  0
   20.5634   51.3329   15.0668 C   0  0  0  0  0  0  0  0  0  0  0  0
   19.2859   51.2514   14.3002 C   0  0  0  0  0  0  0  0  0  0  0  0
   19.5783   50.7671   12.8989 C   0  0  0  0  0  0  0  0  0  0  0  0
   16.5825   53.7915   14.0649 C   0  0  0  0  0  0  0  0  0  0  0  0
   17.0979   54.7472   13.2280 C   0  0  0  0  0  0  0  0  0  0  0  0
   16.2884   55.7902   12.7917 C   0  0  0  0  0  0  0  0  0  0  0  0
   14.9808   55.8876   13.1796 C   0  0  0  0  0  0  0  0  0  0  0  0
   14.0895   56.9501   12.7577 C   0  0  0  0  0  0  0  0  0  0  0  0
   14.5975   58.1226   12.1919 C   0  0  0  0  0  0  0  0  0  0  0  0
   13.7460   59.1237   11.7950 C   0  0  0  0  0  0  0  0  0  0  0  0
   12.3804   59.0141   11.9365 C   0  0  0  0  0  0  0  0  0  0  0  0
   11.5057   60.0770   11.5132 N   0  0  0  0  0  0  0  0  0  0  0  0
   11.8904   57.8952   12.4768 N   0  0  0  0  0  0  0  0  0  0  0  0
   12.7202   56.8954   12.8745 C   0  0  0  0  0  0  0  0  0  0  0  0
   14.5146   54.9365   13.9970 N   0  0  0  0  0  0  0  0  0  0  0  0
   15.2406   53.9150   14.4478 C   0  0  0  0  0  0  0  0  0  0  0  0
   14.7178   52.9942   15.2711 N   0  0  0  0  0  0  0  0  0  0  0  0
  1  2  1  0
  2  3  1  0
  3  4  1  0
  4  5  1  0
  5  6  1  0
  6  7  1  0
  7  8  1  0
  8  9  2  0
  9 10  1  0
 10 11  1  0
 11 12  1  0
 12 13  1  0
 13 14  1  0
 14 15  1  0
 15 16  1  0
 16 17  1  0
 10 18  2  0
 18 19  1  0
 19 20  2  0
 20 21  1  0
 21 22  1  0
 22 23  2  0
 23 24  1  0
 24 25  2  0
 25 26  1  0
 25 27  1  0
 27 28  2  0
 21 29  2  0
 29 30  1  0
 30 31  2  0
  7  2  1  0
 31  8  1  0
 16 11  1  0
 30 18  1  0
 28 22  1  0
M  END
$$$$
