
     RDKit          3D

 31 33  0  0  0  0  0  0  0  0999 V2000
   13.4319   59.3328   13.7302 C   0  0  0  0  0  0  0  0  0  0  0  0
   13.2497   57.9551   13.8409 O   0  0  0  0  0  0  0  0  0  0  0  0
   14.1408   57.0013   13.3948 C   0  0  0  0  0  0  0  0  0  0  0  0
   13.7815   55.8800   12.6813 C   0  0  0  0  0  0  0  0  0  0  0  0
   14.7537   54.9857   12.2814 C   0  0  0  0  0  0  0  0  0  0  0  0
   16.0903   55.1676   12.5689 C   0  0  0  0  0  0  0  0  0  0  0  0
   17.1506   54.2255   12.1524 C   0  0  0  0  0  0  0  0  0  0  0  0
   16.7150   53.5928   10.9859 O   0  0  0  0  0  0  0  0  0  0  0  0
   17.5307   53.2789   13.2135 C   0  0  0  0  0  0  0  0  0  0  0  0
   16.5660   52.5983   13.9463 C   0  0  0  0  0  0  0  0  0  0  0  0
   16.8902   51.7086   14.9434 C   0  0  0  0  0  0  0  0  0  0  0  0
   15.8707   50.9825   15.7260 C   0  0  0  0  0  0  0  0  0  0  0  0
   15.6589   51.5878   16.9635 O   0  0  0  0  0  0  0  0  0  0  0  0
   15.1349   50.7190   17.8957 C   0  0  0  0  0  0  0  0  0  0  0  0
   14.1681   49.8979   17.3765 O   0  0  0  0  0  0  0  0  0  0  0  0
   13.6380   49.0362   18.2976 C   0  0  0  0  0  0  0  0  0  0  0  0
   12.7027   49.7234   19.2783 C   0  0  0  0  0  0  0  0  0  0  0  0
   11.4611   49.9789   18.7208 O   0  0  0  0  0  0  0  0  0  0  0  0
   14.6366   48.2021   19.0352 C   0  0  0  0  0  0  0  0  0  0  0  0
   15.3140   47.3958   18.1027 O   0  0  0  0  0  0  0  0  0  0  0  0
   15.6794   49.1182   19.6360 C   0  0  0  0  0  0  0  0  0  0  0  0
   16.6150   48.4403   20.3831 O   0  0  0  0  0  0  0  0  0  0  0  0
   16.2813   49.9081   18.4931 C   0  0  0  0  0  0  0  0  0  0  0  0
   17.2497   50.7833   18.9864 O   0  0  0  0  0  0  0  0  0  0  0  0
   18.2515   51.5126   15.1949 C   0  0  0  0  0  0  0  0  0  0  0  0
   19.2071   52.1887   14.4668 C   0  0  0  0  0  0  0  0  0  0  0  0
   18.8644   53.0798   13.4677 C   0  0  0  0  0  0  0  0  0  0  0  0
   19.8534   53.7468   12.7506 O   0  0  0  0  0  0  0  0  0  0  0  0
   21.2246   53.5127   13.0057 C   0  0  0  0  0  0  0  0  0  0  0  0
   16.4607   56.2883   13.2835 C   0  0  0  0  0  0  0  0  0  0  0  0
   15.4862   57.1872   13.6859 C   0  0  0  0  0  0  0  0  0  0  0  0
  1  2  1  0
  2  3  1  0
  3  4  2  0
  4  5  1  0
  5  6  2  0
  6  7  1  0
  7  8  1  0
  7  9  1  0
  9 10  2  0
 10 11  1  0
 11 12  1  0
 12 13  1  0
 13 14  1  0
 14 15  1  0
 15 16  1  0
 16 17  1  0
 17 18  1  0
 16 19  1  0
 19 20  1  0
 19 21  1  0
 21 22  1  0
 21 23  1  0
 23 24  1  0
 11 25  2  0
 25 26  1  0
 26 27  2  0
 27 28  1  0
 28 29  1  0
  6 30  1  0
 30 31  2  0
 31  3  1  0
 27  9  1  0
 23 14  1  0
M  END
$$$$
