
     RDKit          3D

 25 27  0  0  0  0  0  0  0  0999 V2000
   11.6710   63.4248   12.1100 C   0  0  0  0  0  0  0  0  0  0  0  0
   11.9147   61.9321   12.3113 C   0  0  0  0  0  0  0  0  0  0  0  0
   12.9156   61.5070   11.2587 C   0  0  0  0  0  0  0  0  0  0  0  0
   12.9771   60.0137   11.1618 C   0  0  0  0  0  0  0  0  0  0  0  0
   12.4567   59.0909   10.4860 N   0  0  0  0  0  0  0  0  0  0  0  0
   12.7446   57.8699   10.6698 N   0  0  0  0  0  0  0  0  0  0  0  0
   13.5391   57.4286   11.4984 C   0  0  0  0  0  0  0  0  0  0  0  0
   14.0700   56.1878   11.9486 N   0  0  0  0  0  0  0  0  0  0  0  0
   15.0440   56.1132   12.9863 C   0  0  0  0  0  0  0  0  0  0  0  0
   15.8331   57.0867   13.1425 O   0  0  0  0  0  0  0  0  0  0  0  0
   15.0903   54.9556   13.8002 N   0  0  0  0  0  0  0  0  0  0  0  0
   14.6028   53.7143   13.2449 C   0  0  0  0  0  0  0  0  0  0  0  0
   14.6125   52.6837   14.3639 C   0  0  0  0  0  0  0  0  0  0  0  0
   16.0372   52.6714   14.8928 C   0  0  0  0  0  0  0  0  0  0  0  0
   16.3226   51.4462   15.6100 N   0  0  0  0  0  0  0  0  0  0  0  0
   15.4375   50.3581   15.7295 C   0  0  0  0  0  0  0  0  0  0  0  0
   14.9543   49.8674   14.6762 O   0  0  0  0  0  0  0  0  0  0  0  0
   15.0982   49.8203   17.0820 C   0  0  0  0  0  0  0  0  0  0  0  0
   14.7273   48.3753   17.0253 C   0  0  0  0  0  0  0  0  0  0  0  0
   13.8976   48.1658   18.2751 C   0  0  0  0  0  0  0  0  0  0  0  0
   13.5734   49.5142   18.8342 C   0  0  0  0  0  0  0  0  0  0  0  0
   13.8788   50.4648   17.6692 C   0  0  0  0  0  0  0  0  0  0  0  0
   16.2398   53.8925   15.7215 C   0  0  0  0  0  0  0  0  0  0  0  0
   15.6240   55.1056   15.1340 C   0  0  0  0  0  0  0  0  0  0  0  0
   14.0845   59.0224   12.2753 S   0  0  0  0  0  0  0  0  0  0  0  0
  1  2  1  0
  2  3  1  0
  3  4  1  0
  4  5  2  0
  5  6  1  0
  6  7  2  0
  7  8  1  0
  8  9  1  0
  9 10  2  0
  9 11  1  0
 11 12  1  0
 12 13  1  0
 13 14  1  0
 14 15  1  0
 15 16  1  0
 16 17  2  0
 16 18  1  0
 18 19  1  0
 19 20  1  0
 20 21  1  0
 21 22  1  0
 14 23  1  0
 23 24  1  0
  7 25  1  0
 25  4  1  0
 24 11  1  0
 22 18  1  0
M  END
$$$$
