
     RDKit          3D

 25 28  0  0  0  0  0  0  0  0999 V2000
   10.5135   96.1072   64.4391 C   0  0  0  0  0  0  0  0  0  0  0  0
   11.0148   95.6175   63.2095 O   0  0  0  0  0  0  0  0  0  0  0  0
   11.1790   96.4796   62.1215 C   0  0  0  0  0  0  0  0  0  0  0  0
   12.2029   96.2993   61.2173 C   0  0  0  0  0  0  0  0  0  0  0  0
   12.3720   97.1550   60.1309 C   0  0  0  0  0  0  0  0  0  0  0  0
   11.5184   98.2169   59.9199 C   0  0  0  0  0  0  0  0  0  0  0  0
   11.6888   99.1286   58.7727 C   0  0  0  0  0  0  0  0  0  0  0  0
   10.9283  100.2155   58.5799 N   0  0  0  0  0  0  0  0  0  0  0  0
   11.3399  100.7795   57.4971 O   0  0  0  0  0  0  0  0  0  0  0  0
   12.3322  100.1120   56.9752 C   0  0  0  0  0  0  0  0  0  0  0  0
   13.0787  100.4309   55.7366 C   0  0  0  0  0  0  0  0  0  0  0  0
   12.8752  101.4873   55.1231 O   0  0  0  0  0  0  0  0  0  0  0  0
   14.0363   99.5196   55.2460 N   0  0  0  0  0  0  0  0  0  0  0  0
   14.9907   99.8432   54.2484 C   0  0  0  0  0  0  0  0  0  0  0  0
   16.3454   99.6487   54.4077 C   0  0  0  0  0  0  0  0  0  0  0  0
   17.2426   99.9876   53.3862 C   0  0  0  0  0  0  0  0  0  0  0  0
   16.7947  100.5207   52.2042 C   0  0  0  0  0  0  0  0  0  0  0  0
   15.4472  100.7162   52.0410 C   0  0  0  0  0  0  0  0  0  0  0  0
   14.5742  100.3795   53.0515 C   0  0  0  0  0  0  0  0  0  0  0  0
   15.2766  101.2571   50.7768 O   0  0  0  0  0  0  0  0  0  0  0  0
   16.4968  101.2570   50.0732 C   0  0  0  0  0  0  0  0  0  0  0  0
   17.4282  100.9315   51.0697 O   0  0  0  0  0  0  0  0  0  0  0  0
   12.5584   99.0663   57.7768 N   0  0  0  0  0  0  0  0  0  0  0  0
   10.4936   98.3980   60.8242 C   0  0  0  0  0  0  0  0  0  0  0  0
   10.3265   97.5415   61.9094 C   0  0  0  0  0  0  0  0  0  0  0  0
  1  2  1  0
  2  3  1  0
  3  4  2  0
  4  5  1  0
  5  6  2  0
  6  7  1  0
  7  8  2  0
  8  9  1  0
  9 10  1  0
 10 11  1  0
 11 12  2  0
 11 13  1  0
 13 14  1  0
 14 15  2  0
 15 16  1  0
 16 17  2  0
 17 18  1  0
 18 19  2  0
 18 20  1  0
 20 21  1  0
 21 22  1  0
 10 23  2  0
  6 24  1  0
 24 25  2  0
 25  3  1  0
 23  7  1  0
 19 14  1  0
 22 17  1  0
M  END
$$$$
