
     RDKit          3D

 20 22  0  0  0  0  0  0  0  0999 V2000
  -10.8334   62.6558   33.8728 C   0  0  0  0  0  0  0  0  0  0  0  0
  -11.0359   61.2246   33.3972 C   0  0  0  0  0  0  0  0  0  0  0  0
  -10.3703   60.9732   32.1563 N   0  0  0  0  0  0  0  0  0  0  0  0
   -9.9201   62.0725   31.3387 C   0  0  0  0  0  0  0  0  0  0  0  0
   -8.7890   61.7697   30.4190 C   0  0  0  0  0  0  0  0  0  0  0  0
   -8.1645   60.4675   30.6532 N   0  0  0  0  0  0  0  0  0  0  0  0
   -6.7620   60.3204   30.6356 C   0  0  0  0  0  0  0  0  0  0  0  0
   -6.2919   59.1307   30.8784 O   0  0  0  0  0  0  0  0  0  0  0  0
   -5.7292   61.3303   30.3698 C   0  0  0  0  0  0  0  0  0  0  0  0
   -4.5166   60.6765   29.9615 O   0  0  0  0  0  0  0  0  0  0  0  0
   -3.6571   60.7774   31.0585 C   0  0  0  0  0  0  0  0  0  0  0  0
   -2.2408   60.4014   30.6775 C   0  0  0  0  0  0  0  0  0  0  0  0
   -1.2646   60.1407   31.8102 C   0  0  0  0  0  0  0  0  0  0  0  0
   -1.7515   59.0193   30.9425 C   0  0  0  0  0  0  0  0  0  0  0  0
   -9.0070   59.3778   30.9283 C   0  0  0  0  0  0  0  0  0  0  0  0
   -8.7305   58.1152   30.4647 C   0  0  0  0  0  0  0  0  0  0  0  0
   -9.6073   57.1014   30.7865 C   0  0  0  0  0  0  0  0  0  0  0  0
  -10.7252   57.3590   31.5509 C   0  0  0  0  0  0  0  0  0  0  0  0
  -10.9990   58.6269   32.0128 C   0  0  0  0  0  0  0  0  0  0  0  0
  -10.1445   59.6476   31.7066 C   0  0  0  0  0  0  0  0  0  0  0  0
  1  2  1  0
  2  3  1  0
  3  4  1  0
  4  5  1  0
  5  6  1  0
  6  7  1  0
  7  8  2  0
  7  9  1  0
  9 10  1  0
 10 11  1  0
 11 12  1  0
 12 13  1  0
 13 14  1  0
  6 15  1  0
 15 16  2  0
 16 17  1  0
 17 18  2  0
 18 19  1  0
 19 20  2  0
 20  3  1  0
 14 12  1  0
 20 15  1  0
M  END
$$$$
