
     RDKit          3D

 22 24  0  0  0  0  0  0  0  0999 V2000
   29.3343   82.6794   51.7995 C   0  0  0  0  0  0  0  0  0  0  0  0
   30.7927   82.4479   51.6620 C   0  0  0  0  0  0  0  0  0  0  0  0
   31.5630   83.2889   50.8938 C   0  0  0  0  0  0  0  0  0  0  0  0
   32.9193   83.0838   50.7585 C   0  0  0  0  0  0  0  0  0  0  0  0
   33.5598   82.0279   51.3869 C   0  0  0  0  0  0  0  0  0  0  0  0
   34.9459   81.7783   51.2771 N   0  0  0  0  0  0  0  0  0  0  0  0
   35.6186   81.8905   50.1190 N   0  0  0  0  0  0  0  0  0  0  0  0
   36.9061   81.5924   50.3231 C   0  0  0  0  0  0  0  0  0  0  0  0
   37.9867   81.5914   49.3225 C   0  0  0  0  0  0  0  0  0  0  0  0
   37.0320   81.2851   51.6545 C   0  0  0  0  0  0  0  0  0  0  0  0
   38.2739   80.8918   52.3319 C   0  0  0  0  0  0  0  0  0  0  0  0
   39.0099   82.1158   52.7909 C   0  0  0  0  0  0  0  0  0  0  0  0
   38.4825   83.2620   52.5787 O   0  0  0  0  0  0  0  0  0  0  0  0
   40.2574   82.0206   53.4434 N   0  0  0  0  0  0  0  0  0  0  0  0
   40.8797   83.1995   53.9751 C   0  0  0  0  0  0  0  0  0  0  0  0
   40.9123   80.7476   53.5804 C   0  0  0  0  0  0  0  0  0  0  0  0
   42.3086   80.5087   53.2039 C   0  0  0  0  0  0  0  0  0  0  0  0
   41.2486   80.1256   52.1976 C   0  0  0  0  0  0  0  0  0  0  0  0
   35.7953   81.4003   52.2670 C   0  0  0  0  0  0  0  0  0  0  0  0
   35.4839   81.1599   53.6950 C   0  0  0  0  0  0  0  0  0  0  0  0
   32.7886   81.1898   52.1534 C   0  0  0  0  0  0  0  0  0  0  0  0
   31.4159   81.3881   52.2970 C   0  0  0  0  0  0  0  0  0  0  0  0
  1  2  1  0
  2  3  2  0
  3  4  1  0
  4  5  2  0
  5  6  1  0
  6  7  1  0
  7  8  2  0
  8  9  1  0
  8 10  1  0
 10 11  1  0
 11 12  1  0
 12 13  2  0
 12 14  1  0
 14 15  1  0
 14 16  1  0
 16 17  1  0
 17 18  1  0
 10 19  2  0
 19 20  1  0
  5 21  1  0
 21 22  2  0
 22  2  1  0
 19  6  1  0
 18 16  1  0
M  END
$$$$
