
     RDKit          3D

 28 31  0  0  0  0  0  0  0  0999 V2000
   12.4772   64.4290   14.6278 C   0  0  0  0  0  0  0  0  0  0  0  0
   12.6195   63.5422   13.4490 C   0  0  0  0  0  0  0  0  0  0  0  0
   11.8831   63.8457   12.3063 C   0  0  0  0  0  0  0  0  0  0  0  0
   12.0338   63.0095   11.2321 C   0  0  0  0  0  0  0  0  0  0  0  0
   12.8885   61.9296   11.3287 C   0  0  0  0  0  0  0  0  0  0  0  0
   13.5892   61.6577   12.4445 N   0  0  0  0  0  0  0  0  0  0  0  0
   14.4487   60.5185   12.4520 C   0  0  0  0  0  0  0  0  0  0  0  0
   13.7246   59.2170   12.6571 C   0  0  0  0  0  0  0  0  0  0  0  0
   14.7440   58.0868   12.7884 C   0  0  0  0  0  0  0  0  0  0  0  0
   15.6442   57.7318   13.4279 N   0  0  0  0  0  0  0  0  0  0  0  0
   16.3820   56.6487   13.3041 C   0  0  0  0  0  0  0  0  0  0  0  0
   16.0459   55.8238   12.2823 C   0  0  0  0  0  0  0  0  0  0  0  0
   16.7188   54.2730   11.7089 S   0  0  0  0  0  0  0  0  0  0  0  0
   17.0147   53.1559   13.0507 C   0  0  0  0  0  0  0  0  0  0  0  0
   18.2860   52.9664   13.5123 C   0  0  0  0  0  0  0  0  0  0  0  0
   18.5343   52.0942   14.5632 C   0  0  0  0  0  0  0  0  0  0  0  0
   17.4886   51.4130   15.1464 C   0  0  0  0  0  0  0  0  0  0  0  0
   16.2094   51.6152   14.6687 C   0  0  0  0  0  0  0  0  0  0  0  0
   15.9704   52.4847   13.6227 C   0  0  0  0  0  0  0  0  0  0  0  0
   14.6238   56.6897   11.5217 S   0  0  0  0  0  0  0  0  0  0  0  0
   12.9225   58.8243   11.5156 N   0  0  0  0  0  0  0  0  0  0  0  0
   11.5862   59.1748   11.8016 C   0  0  0  0  0  0  0  0  0  0  0  0
   10.6692   59.2411   10.9369 O   0  0  0  0  0  0  0  0  0  0  0  0
   11.4821   59.4310   13.2171 N   0  0  0  0  0  0  0  0  0  0  0  0
   12.7755   59.2258   13.7566 C   0  0  0  0  0  0  0  0  0  0  0  0
   13.0152   59.0817   14.9747 O   0  0  0  0  0  0  0  0  0  0  0  0
   13.4660   62.4556   13.5158 C   0  0  0  0  0  0  0  0  0  0  0  0
   14.1070   62.2403   14.5931 O   0  0  0  0  0  0  0  0  0  0  0  0
  1  2  1  0
  2  3  2  0
  3  4  1  0
  4  5  2  0
  5  6  1  0
  6  7  1  0
  7  8  1  0
  8  9  1  0
  9 10  2  0
 10 11  1  0
 11 12  2  0
 12 13  1  0
 13 14  1  0
 14 15  2  0
 15 16  1  0
 16 17  2  0
 17 18  1  0
 18 19  2  0
 12 20  1  0
  8 21  1  0
 21 22  1  0
 22 23  2  0
 22 24  1  0
 24 25  1  0
 25 26  2  0
  6 27  1  0
 27 28  2  0
 27  2  1  0
 25  8  1  0
 20  9  1  0
 19 14  1  0
M  END
$$$$
