
     RDKit          3D

 38 41  0  0  0  0  0  0  0  0999 V2000
   41.6103   83.4827   52.3348 C   0  0  0  0  0  0  0  0  0  0  0  0
   40.4209   82.6046   52.0664 C   0  0  1  0  0  0  0  0  0  0  0  0
   40.6356   82.0984   50.6241 C   0  0  0  0  0  0  0  0  0  0  0  0
   39.4536   82.2889   49.7997 N   0  0  0  0  0  0  0  0  0  0  0  0
   39.7847   82.7105   48.5059 C   0  0  1  0  0  0  0  0  0  0  0  0
   40.0515   84.1176   48.2121 C   0  0  0  0  0  0  0  0  0  0  0  0
   40.9854   81.8839   48.0128 C   0  0  0  0  0  0  0  0  0  0  0  0
   40.6329   80.9204   47.0950 O   0  0  0  0  0  0  0  0  0  0  0  0
   38.0885   82.1175   50.1213 C   0  0  0  0  0  0  0  0  0  0  0  0
   37.4190   81.9565   49.0996 O   0  0  0  0  0  0  0  0  0  0  0  0
   37.2647   82.0801   51.3229 C   0  0  0  0  0  0  0  0  0  0  0  0
   35.9812   82.3159   50.8828 C   0  0  0  0  0  0  0  0  0  0  0  0
   34.9564   82.3459   51.7843 C   0  0  0  0  0  0  0  0  0  0  0  0
   33.5289   82.5969   51.3843 C   0  0  0  0  0  0  0  0  0  0  0  0
   33.0231   81.3387   50.6923 C   0  0  0  0  0  0  0  0  0  0  0  0
   31.5418   81.3776   50.6362 C   0  0  0  0  0  0  0  0  0  0  0  0
   30.8222   80.2504   50.9704 C   0  0  0  0  0  0  0  0  0  0  0  0
   29.4467   80.2610   50.9249 C   0  0  0  0  0  0  0  0  0  0  0  0
   28.7372   81.3771   50.5499 C   0  0  0  0  0  0  0  0  0  0  0  0
   29.4432   82.5079   50.2142 C   0  0  0  0  0  0  0  0  0  0  0  0
   30.8389   82.4924   50.2624 C   0  0  0  0  0  0  0  0  0  0  0  0
   35.2617   82.1336   53.1215 C   0  0  0  0  0  0  0  0  0  0  0  0
   36.5239   81.9047   53.5339 N   0  0  0  0  0  0  0  0  0  0  0  0
   37.5425   81.8700   52.6759 C   0  0  0  0  0  0  0  0  0  0  0  0
   38.7064   81.6206   53.3485 O   0  0  0  0  0  0  0  0  0  0  0  0
   40.1368   81.5234   52.9957 C   0  0  2  0  0  0  0  0  0  0  0  0
   40.7851   81.2483   54.2687 C   0  0  0  0  0  0  0  0  0  0  0  0
   42.1615   81.1027   54.4494 N   0  0  0  0  0  0  0  0  0  0  0  0
   42.8773   79.8389   54.1135 C   0  0  0  0  0  0  0  0  0  0  0  0
   42.9925   82.1170   54.9561 C   0  0  0  0  0  0  0  0  0  0  0  0
   42.6988   83.3591   54.7909 O   0  0  0  0  0  0  0  0  0  0  0  0
   44.2035   81.9160   55.6716 N   0  0  0  0  0  0  0  0  0  0  0  0
   44.9260   83.0302   56.2905 C   0  0  0  0  0  0  0  0  0  0  0  0
   45.9599   82.4594   57.2232 C   0  0  0  0  0  0  0  0  0  0  0  0
   46.7922   83.6162   57.7895 C   0  0  0  0  0  0  0  0  0  0  0  0
   47.5025   84.3481   56.6806 C   0  0  0  0  0  0  0  0  0  0  0  0
   46.4689   84.9148   55.7241 C   0  0  0  0  0  0  0  0  0  0  0  0
   45.6527   83.7646   55.1880 C   0  0  0  0  0  0  0  0  0  0  0  0
  2  1  1  1
  2  3  1  0
  3  4  1  0
  4  5  1  0
  5  6  1  1
  5  7  1  0
  7  8  1  0
  4  9  1  0
  9 10  2  0
  9 11  1  0
 11 12  2  0
 12 13  1  0
 13 14  1  0
 14 15  1  0
 15 16  1  0
 16 17  2  0
 17 18  1  0
 18 19  2  0
 19 20  1  0
 20 21  2  0
 13 22  2  0
 22 23  1  0
 23 24  2  0
 24 25  1  0
 25 26  1  0
 26 27  1  1
 27 28  1  0
 28 29  1  0
 28 30  1  0
 30 31  2  0
 30 32  1  0
 32 33  1  0
 33 34  1  0
 34 35  1  0
 35 36  1  0
 36 37  1  0
 37 38  1  0
 26  2  1  0
 38 33  1  0
 24 11  1  0
 21 16  1  0
M  END
$$$$
