
     RDKit          3D

 30 32  0  0  0  0  0  0  0  0999 V2000
   13.0044   96.0386   62.1114 O   0  0  0  0  0  0  0  0  0  0  0  0
   11.8039   95.6914   62.0624 C   0  0  0  0  0  0  0  0  0  0  0  0
   10.9374   96.1006   60.9555 C   0  0  0  0  0  0  0  0  0  0  0  0
   11.7165   96.5005   59.8159 N   0  0  0  0  0  0  0  0  0  0  0  0
   11.5665   97.8290   59.2957 C   0  0  0  0  0  0  0  0  0  0  0  0
   10.8578   98.6774   59.9127 O   0  0  0  0  0  0  0  0  0  0  0  0
   12.1948   98.2221   58.1000 N   0  0  0  0  0  0  0  0  0  0  0  0
   12.0015   99.5715   57.6229 C   0  0  0  0  0  0  0  0  0  0  0  0
   11.2493  100.4850   58.3304 C   0  0  0  0  0  0  0  0  0  0  0  0
   11.0612  101.7805   57.8657 C   0  0  0  0  0  0  0  0  0  0  0  0
   11.6238  102.1944   56.6769 C   0  0  0  0  0  0  0  0  0  0  0  0
   12.3802  101.2932   55.9553 C   0  0  0  0  0  0  0  0  0  0  0  0
   13.0917  101.8206   54.4473 Cl  0  0  0  0  0  0  0  0  0  0  0  0
   12.5594  100.0000   56.4334 C   0  0  0  0  0  0  0  0  0  0  0  0
   13.5125   98.8646   55.5231 Cl  0  0  0  0  0  0  0  0  0  0  0  0
   11.2436   94.8770   63.0980 N   0  0  0  0  0  0  0  0  0  0  0  0
   12.0869   94.2427   64.0529 C   0  0  0  0  0  0  0  0  0  0  0  0
   11.5260   92.8467   64.4889 C   0  0  0  0  0  0  0  0  0  0  0  0
   12.8126   92.0246   64.6376 C   0  0  0  0  0  0  0  0  0  0  0  0
   13.8731   92.3377   63.7892 N   0  0  0  0  0  0  0  0  0  0  0  0
   14.8755   93.1898   64.2915 C   0  0  0  0  0  0  0  0  0  0  0  0
   16.1730   92.9064   63.4929 C   0  0  0  0  0  0  0  0  0  0  0  0
   16.6846   91.7135   63.9731 O   0  0  0  0  0  0  0  0  0  0  0  0
   15.6763   90.7626   64.1043 C   0  0  0  0  0  0  0  0  0  0  0  0
   14.4522   91.1111   63.2757 C   0  0  0  0  0  0  0  0  0  0  0  0
   10.9853   92.9959   65.8602 C   0  0  0  0  0  0  0  0  0  0  0  0
    9.5419   93.2743   65.9583 C   0  0  0  0  0  0  0  0  0  0  0  0
    8.6348   92.6679   64.9655 C   0  0  0  0  0  0  0  0  0  0  0  0
    9.2347   92.0321   63.7690 C   0  0  0  0  0  0  0  0  0  0  0  0
   10.6178   92.4400   63.4085 C   0  0  0  0  0  0  0  0  0  0  0  0
  1  2  2  0
  2  3  1  0
  3  4  1  0
  4  5  1  0
  5  6  2  0
  5  7  1  0
  7  8  1  0
  8  9  2  0
  9 10  1  0
 10 11  2  0
 11 12  1  0
 12 13  1  0
 12 14  2  0
 14 15  1  0
  2 16  1  0
 16 17  1  0
 17 18  1  0
 18 19  1  0
 19 20  1  0
 20 21  1  0
 21 22  1  0
 22 23  1  0
 23 24  1  0
 24 25  1  0
 18 26  1  0
 26 27  1  0
 27 28  1  0
 28 29  1  0
 29 30  1  0
 14  8  1  0
 30 18  1  0
 25 20  1  0
M  END
$$$$
