
     RDKit          3D

 32 36  0  0  0  0  0  0  0  0999 V2000
   16.8191  102.0759   55.6127 C   0  0  0  0  0  0  0  0  0  0  0  0
   16.4643  101.6225   54.2302 C   0  0  0  0  0  0  0  0  0  0  0  0
   17.1486  101.8386   53.0848 N   0  0  0  0  0  0  0  0  0  0  0  0
   16.4057  101.2245   52.1289 C   0  0  0  0  0  0  0  0  0  0  0  0
   15.3509  100.6799   52.6674 O   0  0  0  0  0  0  0  0  0  0  0  0
   15.3278  100.8890   53.9609 C   0  0  0  0  0  0  0  0  0  0  0  0
   14.3291  100.4521   54.9295 C   0  0  0  0  0  0  0  0  0  0  0  0
   14.2247  100.7735   56.2309 N   0  0  0  0  0  0  0  0  0  0  0  0
   13.1725  100.1638   56.7713 N   0  0  0  0  0  0  0  0  0  0  0  0
   12.5724   99.4260   55.8038 C   0  0  0  0  0  0  0  0  0  0  0  0
   11.1006   98.3943   55.9861 S   0  0  0  0  0  0  0  0  0  0  0  0
   10.4949   98.6278   57.6782 C   0  0  0  0  0  0  0  0  0  0  0  0
   10.4568   97.3289   58.4556 C   0  0  0  0  0  0  0  0  0  0  0  0
   10.5773   97.6595   59.9105 C   0  0  0  0  0  0  0  0  0  0  0  0
   11.5295   96.9249   60.6379 N   0  0  0  0  0  0  0  0  0  0  0  0
   12.2532   97.5962   61.6594 C   0  0  0  0  0  0  0  0  0  0  0  0
   13.1665   96.4745   62.1764 C   0  0  0  0  0  0  0  0  0  0  0  0
   13.5170   95.4256   61.1905 C   0  0  0  0  0  0  0  0  0  0  0  0
   12.2905   95.2578   62.0054 C   0  0  0  0  0  0  0  0  0  0  0  0
   12.2015   94.2657   63.0762 C   0  0  0  0  0  0  0  0  0  0  0  0
   13.2204   94.1456   64.0143 C   0  0  0  0  0  0  0  0  0  0  0  0
   13.1621   93.2195   65.0346 C   0  0  0  0  0  0  0  0  0  0  0  0
   12.0734   92.3782   65.1484 C   0  0  0  0  0  0  0  0  0  0  0  0
   12.0291   91.3886   66.2538 C   0  0  0  0  0  0  0  0  0  0  0  0
   12.7082   90.2549   65.7957 F   0  0  0  0  0  0  0  0  0  0  0  0
   10.7237   91.0136   66.4995 F   0  0  0  0  0  0  0  0  0  0  0  0
   12.6410   91.9085   67.3687 F   0  0  0  0  0  0  0  0  0  0  0  0
   11.0545   92.4794   64.2320 C   0  0  0  0  0  0  0  0  0  0  0  0
   11.1275   93.4125   63.2152 C   0  0  0  0  0  0  0  0  0  0  0  0
   11.0153   95.7597   61.3208 C   0  0  0  0  0  0  0  0  0  0  0  0
   13.2975   99.6185   54.6875 N   0  0  0  0  0  0  0  0  0  0  0  0
   12.9955   99.0034   53.4021 C   0  0  0  0  0  0  0  0  0  0  0  0
  1  2  1  0
  2  3  1  0
  3  4  2  0
  4  5  1  0
  5  6  1  0
  6  7  1  0
  7  8  2  0
  8  9  1  0
  9 10  2  0
 10 11  1  0
 11 12  1  0
 12 13  1  0
 13 14  1  0
 14 15  1  0
 15 16  1  0
 16 17  1  0
 17 18  1  0
 18 19  1  0
 19 20  1  0
 20 21  2  0
 21 22  1  0
 22 23  2  0
 23 24  1  0
 24 25  1  0
 24 26  1  0
 24 27  1  0
 23 28  1  0
 28 29  2  0
 19 30  1  0
 10 31  1  0
 31 32  1  0
  6  2  2  0
 31  7  1  0
 30 15  1  0
 19 17  1  0
 29 20  1  0
M  END
$$$$
