
     RDKit          3D

 33 37  0  0  0  0  0  0  0  0999 V2000
   11.9032   57.0963    9.8657 N   0  0  0  0  0  0  0  0  0  0  0  0
   12.4710   57.8844   10.5456 C   0  0  0  0  0  0  0  0  0  0  0  0
   13.1773   58.8300   11.3551 C   0  0  0  0  0  0  0  0  0  0  0  0
   13.2709   60.1643   11.2370 N   0  0  0  0  0  0  0  0  0  0  0  0
   14.0450   60.6665   12.2199 C   0  0  0  0  0  0  0  0  0  0  0  0
   14.3808   62.1181   12.4157 C   0  0  0  0  0  0  0  0  0  0  0  0
   15.1485   62.4734   13.7033 C   0  0  0  0  0  0  0  0  0  0  0  0
   13.6944   62.8033   13.5432 C   0  0  0  0  0  0  0  0  0  0  0  0
   14.4245   59.6396   12.9396 O   0  0  0  0  0  0  0  0  0  0  0  0
   13.9370   58.5263   12.4684 C   0  0  0  0  0  0  0  0  0  0  0  0
   14.1630   57.2119   13.0276 N   0  0  0  0  0  0  0  0  0  0  0  0
   13.4440   56.0912   12.4764 C   0  0  0  0  0  0  0  0  0  0  0  0
   14.1012   54.7661   12.5717 C   0  0  0  0  0  0  0  0  0  0  0  0
   15.3841   54.8039   13.2670 N   0  0  0  0  0  0  0  0  0  0  0  0
   15.9085   53.4873   13.4888 C   0  0  0  0  0  0  0  0  0  0  0  0
   15.2322   52.7831   14.6342 C   0  0  0  0  0  0  0  0  0  0  0  0
   16.0775   51.6559   15.1454 C   0  0  0  0  0  0  0  0  0  0  0  0
   17.2469   51.4576   14.7238 O   0  0  0  0  0  0  0  0  0  0  0  0
   15.5873   50.7586   16.1350 N   0  0  0  0  0  0  0  0  0  0  0  0
   16.4570   50.1834   17.0905 C   0  0  0  0  0  0  0  0  0  0  0  0
   17.8266   50.1944   16.9307 C   0  0  0  0  0  0  0  0  0  0  0  0
   18.6491   49.6164   17.9013 C   0  0  0  0  0  0  0  0  0  0  0  0
   18.1037   49.0322   19.0240 C   0  0  0  0  0  0  0  0  0  0  0  0
   16.7301   49.0347   19.1587 C   0  0  0  0  0  0  0  0  0  0  0  0
   15.9067   49.6021   18.2074 C   0  0  0  0  0  0  0  0  0  0  0  0
   14.5177   49.5917   18.3657 N   0  0  0  0  0  0  0  0  0  0  0  0
   13.7967   50.8498   18.3799 C   0  0  0  0  0  0  0  0  0  0  0  0
   12.5161   50.6240   17.5746 C   0  0  0  0  0  0  0  0  0  0  0  0
   11.7452   49.5933   18.0435 O   0  0  0  0  0  0  0  0  0  0  0  0
   12.3577   48.8140   18.9948 C   0  0  0  0  0  0  0  0  0  0  0  0
   13.7286   48.3812   18.5208 C   0  0  0  0  0  0  0  0  0  0  0  0
   15.1618   55.5667   14.4861 C   0  0  0  0  0  0  0  0  0  0  0  0
   15.0809   57.0223   14.1051 C   0  0  0  0  0  0  0  0  0  0  0  0
  1  2  3  0
  2  3  1  0
  3  4  1  0
  4  5  2  0
  5  6  1  0
  6  7  1  0
  7  8  1  0
  5  9  1  0
  9 10  1  0
 10 11  1  0
 11 12  1  0
 12 13  1  0
 13 14  1  0
 14 15  1  0
 15 16  1  0
 16 17  1  0
 17 18  2  0
 17 19  1  0
 19 20  1  0
 20 21  2  0
 21 22  1  0
 22 23  2  0
 23 24  1  0
 24 25  2  0
 25 26  1  0
 26 27  1  0
 27 28  1  0
 28 29  1  0
 29 30  1  0
 30 31  1  0
 14 32  1  0
 32 33  1  0
 10  3  2  0
 33 11  1  0
  8  6  1  0
 25 20  1  0
 31 26  1  0
M  END
$$$$
