
     RDKit          3D

 19 20  0  0  0  0  0  0  0  0999 V2000
   13.4310   91.5622   64.2152 C   0  0  0  0  0  0  0  0  0  0  0  0
   12.9887   92.7934   63.4916 C   0  0  0  0  0  0  0  0  0  0  0  0
   11.6988   93.2604   63.5286 C   0  0  0  0  0  0  0  0  0  0  0  0
   11.3265   94.3991   62.8491 C   0  0  0  0  0  0  0  0  0  0  0  0
   12.2530   95.0919   62.1158 C   0  0  0  0  0  0  0  0  0  0  0  0
   11.8960   96.2996   61.3846 C   0  0  0  0  0  0  0  0  0  0  0  0
   10.7271   96.7561   61.4831 O   0  0  0  0  0  0  0  0  0  0  0  0
   12.7726   96.9866   60.5772 O   0  0  0  0  0  0  0  0  0  0  0  0
   12.3543   98.1431   59.9180 N   0  0  0  0  0  0  0  0  0  0  0  0
   12.5116   98.2584   58.6360 C   0  0  0  0  0  0  0  0  0  0  0  0
   13.0093   97.1150   57.9560 N   0  0  0  0  0  0  0  0  0  0  0  0
   12.2175   99.4492   57.8835 C   0  0  0  0  0  0  0  0  0  0  0  0
   12.8147   99.6098   56.6285 C   0  0  0  0  0  0  0  0  0  0  0  0
   12.5594  100.7349   55.8768 C   0  0  0  0  0  0  0  0  0  0  0  0
   11.7462  101.6998   56.3086 N   0  0  0  0  0  0  0  0  0  0  0  0
   11.1684  101.5590   57.5070 C   0  0  0  0  0  0  0  0  0  0  0  0
   11.3810  100.4593   58.3087 C   0  0  0  0  0  0  0  0  0  0  0  0
   13.5414   94.6132   62.0873 C   0  0  0  0  0  0  0  0  0  0  0  0
   13.9343   93.4799   62.7573 C   0  0  0  0  0  0  0  0  0  0  0  0
  1  2  1  0
  2  3  2  0
  3  4  1  0
  4  5  2  0
  5  6  1  0
  6  7  2  0
  6  8  1  0
  8  9  1  0
  9 10  2  0
 10 11  1  0
 10 12  1  0
 12 13  2  0
 13 14  1  0
 14 15  2  0
 15 16  1  0
 16 17  2  0
  5 18  1  0
 18 19  2  0
 19  2  1  0
 17 12  1  0
M  END
$$$$
