
     RDKit          3D

 23 25  0  0  0  0  0  0  0  0999 V2000
   16.3394   54.9616   10.9554 C   0  0  0  0  0  0  0  0  0  0  0  0
   16.2262   55.9870   12.0285 C   0  0  0  0  0  0  0  0  0  0  0  0
   15.3700   57.0598   11.8621 C   0  0  0  0  0  0  0  0  0  0  0  0
   15.2547   58.0187   12.8489 C   0  0  0  0  0  0  0  0  0  0  0  0
   16.0201   57.8569   13.9848 C   0  0  0  0  0  0  0  0  0  0  0  0
   16.8860   56.7749   14.1567 C   0  0  0  0  0  0  0  0  0  0  0  0
   16.9920   55.8246   13.1645 C   0  0  0  0  0  0  0  0  0  0  0  0
   17.8553   54.6908   13.2654 N   0  0  0  0  0  0  0  0  0  0  0  0
   19.0927   54.6797   12.7104 C   0  0  0  0  0  0  0  0  0  0  0  0
   19.6050   53.4438   13.0160 C   0  0  0  0  0  0  0  0  0  0  0  0
   18.6893   52.7625   13.7266 N   0  0  0  0  0  0  0  0  0  0  0  0
   17.6112   53.5208   13.8846 C   0  0  0  0  0  0  0  0  0  0  0  0
   16.0760   53.1335   14.7435 S   0  0  0  0  0  0  0  0  0  0  0  0
   16.0048   51.3344   15.0782 C   0  0  0  0  0  0  0  0  0  0  0  0
   16.0043   51.0840   16.5472 C   0  0  0  0  0  0  0  0  0  0  0  0
   15.8436   52.0774   17.2998 O   0  0  0  0  0  0  0  0  0  0  0  0
   16.1771   49.7821   17.0811 N   0  0  0  0  0  0  0  0  0  0  0  0
   15.9601   49.5154   18.4857 C   0  0  0  0  0  0  0  0  0  0  0  0
   14.5843   48.9632   18.7757 C   0  0  0  0  0  0  0  0  0  0  0  0
   13.6145   49.9602   18.7725 O   0  0  0  0  0  0  0  0  0  0  0  0
   14.6213   48.3692   20.1748 C   0  0  0  0  0  0  0  0  0  0  0  0
   14.7060   46.8599   20.2697 C   0  0  0  0  0  0  0  0  0  0  0  0
   13.4223   47.5397   20.6118 C   0  0  0  0  0  0  0  0  0  0  0  0
  1  2  1  0
  2  3  2  0
  3  4  1  0
  4  5  2  0
  5  6  1  0
  6  7  2  0
  7  8  1  0
  8  9  1  0
  9 10  2  0
 10 11  1  0
 11 12  2  0
 12 13  1  0
 13 14  1  0
 14 15  1  0
 15 16  2  0
 15 17  1  0
 17 18  1  0
 18 19  1  0
 19 20  1  0
 19 21  1  0
 21 22  1  0
 22 23  1  0
  7  2  1  0
 12  8  1  0
 23 21  1  0
M  END
$$$$
