
     RDKit          3D

 22 24  0  0  0  0  0  0  0  0999 V2000
   17.3982  103.0095   49.9003 O   0  0  0  0  0  0  0  0  0  0  0  0
   16.9260  102.0329   50.5729 C   0  0  0  0  0  0  0  0  0  0  0  0
   16.1272  100.9744   49.9245 C   0  0  0  0  0  0  0  0  0  0  0  0
   15.0415  100.4929   50.8452 C   0  0  0  0  0  0  0  0  0  0  0  0
   13.9345  100.1686   50.3522 O   0  0  0  0  0  0  0  0  0  0  0  0
   15.2761  100.4107   52.2453 N   0  0  0  0  0  0  0  0  0  0  0  0
   14.4235   99.5766   53.0873 C   0  0  0  0  0  0  0  0  0  0  0  0
   13.3708  100.4329   53.7481 C   0  0  0  0  0  0  0  0  0  0  0  0
   13.3930  100.2255   55.2327 C   0  0  0  0  0  0  0  0  0  0  0  0
   11.9992  100.2823   55.7657 C   0  0  0  0  0  0  0  0  0  0  0  0
   11.9444   99.8495   57.1780 C   0  0  0  0  0  0  0  0  0  0  0  0
   12.3179   98.8962   57.8730 N   0  0  0  0  0  0  0  0  0  0  0  0
   12.1478   98.7309   59.1421 C   0  0  0  0  0  0  0  0  0  0  0  0
   12.5573   97.6682   59.9505 C   0  0  0  0  0  0  0  0  0  0  0  0
   12.2981   97.6426   61.2871 C   0  0  0  0  0  0  0  0  0  0  0  0
   11.6291   98.6345   61.9360 C   0  0  0  0  0  0  0  0  0  0  0  0
   11.2012   99.7132   61.1756 C   0  0  0  0  0  0  0  0  0  0  0  0
   11.4663   99.7291   59.8359 C   0  0  0  0  0  0  0  0  0  0  0  0
   11.1250  100.8751   58.4739 S   0  0  0  0  0  0  0  0  0  0  0  0
   16.3480  101.1523   52.7941 C   0  0  0  0  0  0  0  0  0  0  0  0
   16.5594  101.0823   54.0347 O   0  0  0  0  0  0  0  0  0  0  0  0
   17.1706  101.9599   51.9668 N   0  0  0  0  0  0  0  0  0  0  0  0
  1  2  2  0
  2  3  1  0
  3  4  1  0
  4  5  2  0
  4  6  1  0
  6  7  1  0
  7  8  1  0
  8  9  1  0
  9 10  1  0
 10 11  1  0
 11 12  2  0
 12 13  1  0
 13 14  2  0
 14 15  1  0
 15 16  2  0
 16 17  1  0
 17 18  2  0
 18 19  1  0
  6 20  1  0
 20 21  2  0
 20 22  1  0
 22  2  1  0
 19 11  1  0
 18 13  1  0
M  END
$$$$
