
     RDKit          3D

 37 41  0  0  0  0  0  0  0  0999 V2000
   12.9427   91.6706   66.8481 C   0  0  0  0  0  0  0  0  0  0  0  0
   14.1016   91.5230   66.0541 O   0  0  0  0  0  0  0  0  0  0  0  0
   14.3513   92.4196   65.0321 C   0  0  0  0  0  0  0  0  0  0  0  0
   15.6572   92.5275   64.5749 C   0  0  0  0  0  0  0  0  0  0  0  0
   16.0023   93.3951   63.5590 C   0  0  0  0  0  0  0  0  0  0  0  0
   14.9898   94.1720   62.9957 C   0  0  0  0  0  0  0  0  0  0  0  0
   13.6884   94.0921   63.4215 C   0  0  0  0  0  0  0  0  0  0  0  0
   12.6797   94.9231   62.7992 C   0  0  0  0  0  0  0  0  0  0  0  0
   13.0227   95.9452   61.9424 C   0  0  0  0  0  0  0  0  0  0  0  0
   12.0907   96.7543   61.3337 C   0  0  0  0  0  0  0  0  0  0  0  0
   10.7572   96.5649   61.5663 C   0  0  0  0  0  0  0  0  0  0  0  0
    9.7468   97.4435   60.9180 C   0  0  0  0  0  0  0  0  0  0  0  0
   10.2190   98.1164   59.7430 N   0  0  0  0  0  0  0  0  0  0  0  0
   10.2380   99.5052   59.5681 C   0  0  0  0  0  0  0  0  0  0  0  0
    9.7658  100.2087   60.5054 O   0  0  0  0  0  0  0  0  0  0  0  0
   10.7693  100.1887   58.3708 C   0  0  0  0  0  0  0  0  0  0  0  0
   10.1857  101.3971   58.0083 C   0  0  0  0  0  0  0  0  0  0  0  0
   10.6652  102.0497   56.8969 C   0  0  0  0  0  0  0  0  0  0  0  0
   11.7077  101.5388   56.1330 C   0  0  0  0  0  0  0  0  0  0  0  0
   12.2791  100.3415   56.4998 C   0  0  0  0  0  0  0  0  0  0  0  0
   11.8073   99.6696   57.6191 C   0  0  0  0  0  0  0  0  0  0  0  0
   13.3471   99.9753   55.5832 C   0  0  0  0  0  0  0  0  0  0  0  0
   14.0994   98.9679   55.5785 O   0  0  0  0  0  0  0  0  0  0  0  0
   13.4359  101.0175   54.5892 N   0  0  0  0  0  0  0  0  0  0  0  0
   14.3705  101.0538   53.4818 C   0  0  0  0  0  0  0  0  0  0  0  0
   14.1436   99.8022   52.6581 C   0  0  0  0  0  0  0  0  0  0  0  0
   15.2128   99.5997   51.6249 C   0  0  0  0  0  0  0  0  0  0  0  0
   16.5637   99.6926   52.1974 C   0  0  0  0  0  0  0  0  0  0  0  0
   17.5535   99.1510   51.6362 O   0  0  0  0  0  0  0  0  0  0  0  0
   16.8023  100.3945   53.4013 N   0  0  0  0  0  0  0  0  0  0  0  0
   15.7401  101.1421   53.9964 C   0  0  0  0  0  0  0  0  0  0  0  0
   15.9763  101.8834   54.9697 O   0  0  0  0  0  0  0  0  0  0  0  0
   12.4305  101.9623   54.9383 C   0  0  0  0  0  0  0  0  0  0  0  0
   12.1890  103.0313   54.3015 O   0  0  0  0  0  0  0  0  0  0  0  0
   10.3788   95.5451   62.4231 C   0  0  0  0  0  0  0  0  0  0  0  0
   11.3306   94.7505   63.0185 C   0  0  0  0  0  0  0  0  0  0  0  0
   13.3978   93.2052   64.4436 C   0  0  0  0  0  0  0  0  0  0  0  0
  1  2  1  0
  2  3  1  0
  3  4  2  0
  4  5  1  0
  5  6  2  0
  6  7  1  0
  7  8  1  0
  8  9  2  0
  9 10  1  0
 10 11  2  0
 11 12  1  0
 12 13  1  0
 13 14  1  0
 14 15  2  0
 14 16  1  0
 16 17  2  0
 17 18  1  0
 18 19  2  0
 19 20  1  0
 20 21  2  0
 20 22  1  0
 22 23  2  0
 22 24  1  0
 24 25  1  0
 25 26  1  0
 26 27  1  0
 27 28  1  0
 28 29  2  0
 28 30  1  0
 30 31  1  0
 31 32  2  0
 24 33  1  0
 33 34  2  0
 11 35  1  0
 35 36  2  0
  7 37  2  0
 37  3  1  0
 36  8  1  0
 21 16  1  0
 31 25  1  0
 33 19  1  0
M  END
$$$$
