
     RDKit          3D

 20 22  0  0  0  0  0  0  0  0999 V2000
   11.0780   97.3667   61.6335 C   0  0  0  0  0  0  0  0  0  0  0  0
   12.2883   97.6391   60.9550 O   0  0  0  0  0  0  0  0  0  0  0  0
   12.2496   98.2438   59.7077 C   0  0  0  0  0  0  0  0  0  0  0  0
   11.7034   99.5100   59.5584 C   0  0  0  0  0  0  0  0  0  0  0  0
   11.6905  100.0606   58.3040 C   0  0  0  0  0  0  0  0  0  0  0  0
   12.1838   99.4390   57.1873 C   0  0  0  0  0  0  0  0  0  0  0  0
   12.7210   98.1920   57.3380 C   0  0  0  0  0  0  0  0  0  0  0  0
   12.7585   97.5836   58.5995 C   0  0  0  0  0  0  0  0  0  0  0  0
   13.2988   96.3174   58.7798 O   0  0  0  0  0  0  0  0  0  0  0  0
   14.4304   95.9264   58.0007 C   0  0  0  0  0  0  0  0  0  0  0  0
   12.1380  100.0880   55.8835 C   0  0  0  0  0  0  0  0  0  0  0  0
   13.4632  100.4713   55.3539 C   0  0  0  0  0  0  0  0  0  0  0  0
   13.7923  100.4109   54.0210 C   0  0  0  0  0  0  0  0  0  0  0  0
   15.0667  100.7967   53.6308 C   0  0  0  0  0  0  0  0  0  0  0  0
   15.9940  101.2279   54.5058 N   0  0  0  0  0  0  0  0  0  0  0  0
   15.6807  101.2900   55.8104 C   0  0  0  0  0  0  0  0  0  0  0  0
   14.4150  100.9126   56.2428 C   0  0  0  0  0  0  0  0  0  0  0  0
   11.2882  101.2277   55.7709 N   0  0  0  0  0  0  0  0  0  0  0  0
   10.3036  101.3236   56.8180 C   0  0  0  0  0  0  0  0  0  0  0  0
   11.0949  101.4274   58.1286 C   0  0  0  0  0  0  0  0  0  0  0  0
  1  2  1  0
  2  3  1  0
  3  4  2  0
  4  5  1  0
  5  6  2  0
  6  7  1  0
  7  8  2  0
  8  9  1  0
  9 10  1  0
  6 11  1  0
 11 12  1  0
 12 13  2  0
 13 14  1  0
 14 15  2  0
 15 16  1  0
 16 17  2  0
 11 18  1  0
 18 19  1  0
 19 20  1  0
  8  3  1  0
 17 12  1  0
 20  5  1  0
M  END
$$$$
