
     RDKit          3D

 20 21  0  0  0  0  0  0  0  0999 V2000
   10.1980  101.6973   58.2362 C   0  0  0  0  0  0  0  0  0  0  0  0
   10.6095  100.4324   58.9092 C   0  0  0  0  0  0  0  0  0  0  0  0
    9.9341   99.9512   60.0022 C   0  0  0  0  0  0  0  0  0  0  0  0
   10.3167   98.7744   60.6052 C   0  0  0  0  0  0  0  0  0  0  0  0
   11.3948   97.9983   60.1639 C   0  0  0  0  0  0  0  0  0  0  0  0
   11.7272   96.8047   60.8390 N   0  0  0  0  0  0  0  0  0  0  0  0
   10.8113   96.3450   61.8791 C   0  0  0  0  0  0  0  0  0  0  0  0
   11.3299   95.1810   62.5999 C   0  0  0  0  0  0  0  0  0  0  0  0
   10.5581   94.4739   63.4771 C   0  0  0  0  0  0  0  0  0  0  0  0
   11.0692   93.3531   64.1553 C   0  0  0  0  0  0  0  0  0  0  0  0
   12.3732   92.9709   63.9213 C   0  0  0  0  0  0  0  0  0  0  0  0
   13.1710   93.6622   63.0471 C   0  0  0  0  0  0  0  0  0  0  0  0
   14.4960   93.3067   62.7696 C   0  0  0  0  0  0  0  0  0  0  0  0
   15.6525   92.9942   62.5486 N   0  0  0  0  0  0  0  0  0  0  0  0
   12.6225   94.7822   62.3858 C   0  0  0  0  0  0  0  0  0  0  0  0
   12.0638   98.4897   59.0710 C   0  0  0  0  0  0  0  0  0  0  0  0
   13.1869   97.7809   58.5018 C   0  0  0  0  0  0  0  0  0  0  0  0
   14.3013   98.5686   58.0063 N   0  0  0  0  0  0  0  0  0  0  0  0
   13.2766   96.5686   58.4032 O   0  0  0  0  0  0  0  0  0  0  0  0
   11.6676   99.6949   58.4573 C   0  0  0  0  0  0  0  0  0  0  0  0
  1  2  1  0
  2  3  2  0
  3  4  1  0
  4  5  2  0
  5  6  1  0
  6  7  1  0
  7  8  1  0
  8  9  2  0
  9 10  1  0
 10 11  2  0
 11 12  1  0
 12 13  1  0
 13 14  3  0
 12 15  2  0
  5 16  1  0
 16 17  1  0
 17 18  1  0
 17 19  2  0
 16 20  2  0
 20  2  1  0
 15  8  1  0
M  END
$$$$
