
     RDKit          3D

 21 23  0  0  0  0  0  0  0  0999 V2000
   33.2446   81.8633   49.3730 O   0  0  0  0  0  0  0  0  0  0  0  0
   33.9113   82.1124   50.4052 C   0  0  0  0  0  0  0  0  0  0  0  0
   33.2128   82.6374   51.5239 N   0  0  0  0  0  0  0  0  0  0  0  0
   31.7936   82.5888   51.5998 C   0  0  0  0  0  0  0  0  0  0  0  0
   31.0824   83.0113   52.7006 C   0  0  0  0  0  0  0  0  0  0  0  0
   29.7047   82.9591   52.7623 C   0  0  0  0  0  0  0  0  0  0  0  0
   29.0078   82.4706   51.6944 C   0  0  0  0  0  0  0  0  0  0  0  0
   27.6524   82.4184   51.7529 F   0  0  0  0  0  0  0  0  0  0  0  0
   29.6775   82.0407   50.5816 C   0  0  0  0  0  0  0  0  0  0  0  0
   28.9782   81.5570   49.5255 F   0  0  0  0  0  0  0  0  0  0  0  0
   31.0759   82.0990   50.5318 C   0  0  0  0  0  0  0  0  0  0  0  0
   35.3900   81.8690   50.4671 C   0  0  0  0  0  0  0  0  0  0  0  0
   36.1377   81.6319   49.3111 C   0  0  0  0  0  0  0  0  0  0  0  0
   37.8024   81.4194   50.0215 S   0  0  0  0  0  0  0  0  0  0  0  0
   37.2205   81.6828   51.7424 C   0  0  0  0  0  0  0  0  0  0  0  0
   38.1843   81.6223   52.8043 N   0  0  0  0  0  0  0  0  0  0  0  0
   37.9804   81.6284   54.1212 C   0  0  0  0  0  0  0  0  0  0  0  0
   39.1877   81.5554   54.7848 C   0  0  0  0  0  0  0  0  0  0  0  0
   40.1463   81.5040   53.8180 C   0  0  0  0  0  0  0  0  0  0  0  0
   39.4867   81.5475   52.5966 C   0  0  0  0  0  0  0  0  0  0  0  0
   36.0757   81.8599   51.5767 N   0  0  0  0  0  0  0  0  0  0  0  0
  1  2  2  0
  2  3  1  0
  3  4  1  0
  4  5  2  0
  5  6  1  0
  6  7  2  0
  7  8  1  0
  7  9  1  0
  9 10  1  0
  9 11  2  0
  2 12  1  0
 12 13  2  0
 13 14  1  0
 14 15  1  0
 15 16  1  0
 16 17  1  0
 17 18  2  0
 18 19  1  0
 19 20  2  0
 15 21  2  0
 11  4  1  0
 21 12  1  0
 20 16  1  0
M  END
$$$$
