
     RDKit          3D

 23 24  0  0  0  0  0  0  0  0999 V2000
   10.6174   57.9585   11.2000 N   0  0  0  0  0  0  0  0  0  0  0  0
   11.8212   58.0693   11.6528 C   0  0  0  0  0  0  0  0  0  0  0  0
   12.4383   59.3474   11.8158 N   0  0  0  0  0  0  0  0  0  0  0  0
   12.5034   56.8645   11.9812 N   0  0  0  0  0  0  0  0  0  0  0  0
   13.8798   56.8518   12.3943 C   0  0  0  0  0  0  0  0  0  0  0  0
   14.5151   57.9316   12.4950 O   0  0  0  0  0  0  0  0  0  0  0  0
   14.5424   55.6748   12.6901 O   0  0  0  0  0  0  0  0  0  0  0  0
   15.7796   55.5844   13.3271 C   0  0  0  0  0  0  0  0  0  0  0  0
   16.2880   54.2016   13.4466 C   0  0  0  0  0  0  0  0  0  0  0  0
   17.2396   53.6423   12.6255 C   0  0  0  0  0  0  0  0  0  0  0  0
   17.7071   52.3524   12.7446 C   0  0  0  0  0  0  0  0  0  0  0  0
   17.1824   51.6089   13.7388 N   0  0  0  0  0  0  0  0  0  0  0  0
   16.2517   52.0805   14.5807 C   0  0  0  0  0  0  0  0  0  0  0  0
   15.7508   51.2220   15.6064 N   0  0  0  0  0  0  0  0  0  0  0  0
   16.2902   49.9189   15.8629 C   0  0  0  0  0  0  0  0  0  0  0  0
   15.9885   49.5142   17.2754 C   0  0  0  0  0  0  0  0  0  0  0  0
   14.5389   49.6235   17.6186 C   0  0  0  0  0  0  0  0  0  0  0  0
   13.9777   48.3501   17.4907 F   0  0  0  0  0  0  0  0  0  0  0  0
   14.3647   50.0288   18.9374 F   0  0  0  0  0  0  0  0  0  0  0  0
   13.7654   50.5620   16.7538 C   0  0  0  0  0  0  0  0  0  0  0  0
   14.6388   51.7444   16.3998 C   0  0  0  0  0  0  0  0  0  0  0  0
   15.7865   53.3951   14.4461 C   0  0  0  0  0  0  0  0  0  0  0  0
   14.8528   53.8377   15.3064 F   0  0  0  0  0  0  0  0  0  0  0  0
  1  2  2  0
  2  3  1  0
  2  4  1  0
  4  5  1  0
  5  6  2  0
  5  7  1  0
  7  8  1  0
  8  9  1  0
  9 10  2  0
 10 11  1  0
 11 12  2  0
 12 13  1  0
 13 14  1  0
 14 15  1  0
 15 16  1  0
 16 17  1  0
 17 18  1  0
 17 19  1  0
 17 20  1  0
 20 21  1  0
 13 22  2  0
 22 23  1  0
 22  9  1  0
 21 14  1  0
M  END
$$$$
