
     RDKit          3D

 23 25  0  0  0  0  0  0  0  0999 V2000
   13.6784   56.0000   14.6971 C   0  0  0  0  0  0  0  0  0  0  0  0
   14.5767   55.6789   13.8507 O   0  0  0  0  0  0  0  0  0  0  0  0
   15.5035   55.5285   12.8871 C   0  0  0  0  0  0  0  0  0  0  0  0
   15.6934   56.5406   11.9264 C   0  0  0  0  0  0  0  0  0  0  0  0
   16.6050   56.3156   10.9775 C   0  0  0  0  0  0  0  0  0  0  0  0
   17.3490   55.1890   10.8600 C   0  0  0  0  0  0  0  0  0  0  0  0
   17.1910   54.1584   11.8022 C   0  0  0  0  0  0  0  0  0  0  0  0
   17.7507   52.8976   11.9155 N   0  0  0  0  0  0  0  0  0  0  0  0
   17.2095   52.3273   13.0010 C   0  0  0  0  0  0  0  0  0  0  0  0
   16.3110   53.1628   13.6020 C   0  0  0  0  0  0  0  0  0  0  0  0
   15.4363   52.9617   14.7304 C   0  0  0  0  0  0  0  0  0  0  0  0
   15.8493   52.2158   15.8618 C   0  0  0  0  0  0  0  0  0  0  0  0
   16.3996   52.5661   16.8586 O   0  0  0  0  0  0  0  0  0  0  0  0
   15.4691   50.7288   15.8034 N   0  0  0  0  0  0  0  0  0  0  0  0
   15.4629   49.9975   16.9910 C   0  0  0  0  0  0  0  0  0  0  0  0
   14.0292   49.9969   17.5608 C   0  0  0  0  0  0  0  0  0  0  0  0
   13.7190   49.3353   18.7029 C   0  0  0  0  0  0  0  0  0  0  0  0
   14.6247   48.5946   19.4559 C   0  0  0  0  0  0  0  0  0  0  0  0
   16.0024   48.5637   18.9362 C   0  0  0  0  0  0  0  0  0  0  0  0
   16.0421   49.2862   17.8476 C   0  0  0  0  0  0  0  0  0  0  0  0
   17.5609   48.9790   17.3107 C   0  0  0  0  0  0  0  0  0  0  0  0
   18.8061   48.7325   16.8529 N   0  0  0  0  0  0  0  0  0  0  0  0
   16.2834   54.3346   12.8354 C   0  0  0  0  0  0  0  0  0  0  0  0
  1  2  1  0
  2  3  1  0
  3  4  2  0
  4  5  1  0
  5  6  2  0
  6  7  1  0
  7  8  1  0
  8  9  1  0
  9 10  2  0
 10 11  1  0
 11 12  1  0
 12 13  2  0
 12 14  1  0
 14 15  1  0
 15 16  2  0
 16 17  1  0
 17 18  2  0
 18 19  1  0
 19 20  2  0
 20 21  1  0
 21 22  3  0
 10 23  1  0
 23  3  1  0
 23  7  2  0
 20 15  1  0
M  END
$$$$
