
     RDKit          3D

 23 23  0  0  0  0  0  0  0  0999 V2000
   17.3326   55.7392   10.1886 C   0  0  0  0  0  0  0  0  0  0  0  0
   16.6365   55.6951   11.5350 C   0  0  0  0  0  0  0  0  0  0  0  0
   15.1557   55.8029   11.3729 C   0  0  0  0  0  0  0  0  0  0  0  0
   17.0457   54.4363   12.2656 C   0  0  0  0  0  0  0  0  0  0  0  0
   17.8452   54.4904   13.3777 C   0  0  0  0  0  0  0  0  0  0  0  0
   18.2141   53.3299   14.0263 C   0  0  0  0  0  0  0  0  0  0  0  0
   17.8138   52.0838   13.6091 C   0  0  0  0  0  0  0  0  0  0  0  0
   18.2199   50.8619   14.2853 C   0  0  0  0  0  0  0  0  0  0  0  0
   18.6073   49.8511   13.3680 O   0  0  0  0  0  0  0  0  0  0  0  0
   17.2655   50.2370   15.2269 C   0  0  0  0  0  0  0  0  0  0  0  0
   16.8520   51.0860   16.3968 C   0  0  0  0  0  0  0  0  0  0  0  0
   15.9430   50.4474   17.2797 N   0  0  0  0  0  0  0  0  0  0  0  0
   16.4078   49.3464   18.0329 C   0  0  0  0  0  0  0  0  0  0  0  0
   15.3940   49.1376   19.1708 C   0  0  0  0  0  0  0  0  0  0  0  0
   14.2405   48.6004   18.5700 N   0  0  0  0  0  0  0  0  0  0  0  0
   13.3866   47.7802   19.3208 C   0  0  0  0  0  0  0  0  0  0  0  0
   12.6264   48.4319   20.4340 C   0  0  0  0  0  0  0  0  0  0  0  0
   13.4626   49.0026   21.3929 O   0  0  0  0  0  0  0  0  0  0  0  0
   13.7868   49.2233   17.4015 C   0  0  0  0  0  0  0  0  0  0  0  0
   14.5777   50.4198   16.9396 C   0  0  0  0  0  0  0  0  0  0  0  0
   17.0102   52.0378   12.4905 C   0  0  0  0  0  0  0  0  0  0  0  0
   16.6280   53.2016   11.8223 C   0  0  0  0  0  0  0  0  0  0  0  0
   15.7825   51.0310   15.9603 Cl  0  0  0  0  0  0  0  0  0  0  0  0
  1  2  1  0
  2  3  1  0
  2  4  1  0
  4  5  2  0
  5  6  1  0
  6  7  2  0
  7  8  1  0
  8  9  1  0
  8 10  1  0
 10 11  1  0
 11 12  1  0
 12 13  1  0
 13 14  1  0
 14 15  1  0
 15 16  1  0
 16 17  1  0
 17 18  1  0
 15 19  1  0
 19 20  1  0
  7 21  1  0
 21 22  2  0
 22  4  1  0
 20 12  1  0
M  END
$$$$
