
     RDKit          3D

 23 24  0  0  0  0  0  0  0  0999 V2000
   13.1919   91.6969   66.4102 C   0  0  0  0  0  0  0  0  0  0  0  0
   12.4830   92.3153   65.2636 C   0  0  0  0  0  0  0  0  0  0  0  0
   11.6613   91.6474   64.5739 O   0  0  0  0  0  0  0  0  0  0  0  0
   12.6863   93.6690   64.8855 N   0  0  0  0  0  0  0  0  0  0  0  0
   12.0740   94.1981   63.7162 C   0  0  0  0  0  0  0  0  0  0  0  0
   10.6950   94.2765   63.6212 C   0  0  0  0  0  0  0  0  0  0  0  0
   10.1302   94.7891   62.4868 C   0  0  0  0  0  0  0  0  0  0  0  0
   10.8864   95.2371   61.4194 C   0  0  0  0  0  0  0  0  0  0  0  0
   12.2591   95.1469   61.5410 C   0  0  0  0  0  0  0  0  0  0  0  0
   13.0742   95.6023   60.4707 N   0  0  0  0  0  0  0  0  0  0  0  0
   12.5561   96.0638   59.2170 C   0  0  0  0  0  0  0  0  0  0  0  0
   13.5903   95.9216   58.1452 C   0  0  0  0  0  0  0  0  0  0  0  0
   12.0904   97.4854   59.3769 C   0  0  0  0  0  0  0  0  0  0  0  0
   12.7192   98.2677   60.1277 O   0  0  0  0  0  0  0  0  0  0  0  0
   10.9484   97.9665   58.6942 N   0  0  0  0  0  0  0  0  0  0  0  0
   10.7267   99.3497   58.4539 C   0  0  0  0  0  0  0  0  0  0  0  0
   11.4714  100.4584   58.7734 C   0  0  0  0  0  0  0  0  0  0  0  0
   10.8154  101.6068   58.3122 C   0  0  0  0  0  0  0  0  0  0  0  0
   11.2997  103.0046   58.4627 C   0  0  0  0  0  0  0  0  0  0  0  0
    9.7238  101.1546   57.7445 O   0  0  0  0  0  0  0  0  0  0  0  0
    9.6431   99.8822   57.8074 N   0  0  0  0  0  0  0  0  0  0  0  0
   12.8510   94.6342   62.6741 C   0  0  0  0  0  0  0  0  0  0  0  0
   14.3497   94.5416   62.7940 C   0  0  0  0  0  0  0  0  0  0  0  0
  1  2  1  0
  2  3  2  0
  2  4  1  0
  4  5  1  0
  5  6  2  0
  6  7  1  0
  7  8  2  0
  8  9  1  0
  9 10  1  0
 10 11  1  0
 11 12  1  0
 11 13  1  0
 13 14  2  0
 13 15  1  0
 15 16  1  0
 16 17  1  0
 17 18  2  0
 18 19  1  0
 18 20  1  0
 20 21  1  0
  9 22  2  0
 22 23  1  0
 22  5  1  0
 21 16  2  0
M  END
$$$$
