
     RDKit          3D

 36 40  0  0  0  0  0  0  0  0999 V2000
   13.2540   50.9824   15.8148 O   0  0  0  0  0  0  0  0  0  0  0  0
   14.4158   50.5939   15.9679 C   0  0  0  0  0  0  0  0  0  0  0  0
   15.4728   51.1072   15.1908 N   0  0  0  0  0  0  0  0  0  0  0  0
   15.4748   52.2333   14.3427 C   0  0  0  0  0  0  0  0  0  0  0  0
   16.5648   53.2071   14.5330 C   0  0  0  0  0  0  0  0  0  0  0  0
   16.5669   53.6059   15.8918 O   0  0  0  0  0  0  0  0  0  0  0  0
   16.5621   54.3818   13.6352 C   0  0  0  0  0  0  0  0  0  0  0  0
   15.2537   55.0602   13.6343 N   0  0  0  0  0  0  0  0  0  0  0  0
   14.4745   54.4424   12.5685 C   0  0  0  0  0  0  0  0  0  0  0  0
   14.9671   54.7146   11.1946 C   0  0  0  0  0  0  0  0  0  0  0  0
   15.7732   55.9479   11.0600 C   0  0  0  0  0  0  0  0  0  0  0  0
   16.3343   56.2417    9.8237 C   0  0  0  0  0  0  0  0  0  0  0  0
   17.0980   57.3738    9.6359 C   0  0  0  0  0  0  0  0  0  0  0  0
   17.2996   58.2221   10.7078 C   0  0  0  0  0  0  0  0  0  0  0  0
   16.7371   57.9278   11.9472 C   0  0  0  0  0  0  0  0  0  0  0  0
   15.9734   56.7894   12.1225 C   0  0  0  0  0  0  0  0  0  0  0  0
   15.3562   56.4709   13.4425 C   0  0  0  0  0  0  0  0  0  0  0  0
   14.7284   49.5733   16.9771 C   0  0  0  0  0  0  0  0  0  0  0  0
   13.6844   48.8097   17.5052 C   0  0  0  0  0  0  0  0  0  0  0  0
   14.0014   47.8788   18.4220 N   0  0  0  0  0  0  0  0  0  0  0  0
   15.2512   47.6465   18.8518 C   0  0  0  0  0  0  0  0  0  0  0  0
   15.5013   46.6299   19.8448 C   0  0  0  0  0  0  0  0  0  0  0  0
   14.3262   45.9292   20.4253 C   0  0  0  0  0  0  0  0  0  0  0  0
   13.7686   46.9866   21.3296 C   0  0  0  0  0  0  0  0  0  0  0  0
   15.0374   47.7263   21.6906 C   0  0  0  0  0  0  0  0  0  0  0  0
   16.0808   47.2140   20.9498 O   0  0  0  0  0  0  0  0  0  0  0  0
   16.2891   48.4200   18.3136 C   0  0  0  0  0  0  0  0  0  0  0  0
   17.5403   48.1278   18.7997 O   0  0  0  0  0  0  0  0  0  0  0  0
   18.7239   48.2629   18.0460 C   0  0  0  0  0  0  0  0  0  0  0  0
   19.8940   47.9070   18.9431 C   0  0  0  0  0  0  0  0  0  0  0  0
   21.0543   47.3775   18.1384 C   0  0  0  0  0  0  0  0  0  0  0  0
   22.3375   47.3111   18.9037 C   0  0  0  0  0  0  0  0  0  0  0  0
   22.5636   48.4599   19.8368 C   0  0  0  0  0  0  0  0  0  0  0  0
   21.6228   49.5702   19.4854 C   0  0  0  0  0  0  0  0  0  0  0  0
   20.2293   49.1212   19.7665 C   0  0  0  0  0  0  0  0  0  0  0  0
   15.9821   49.3423   17.4061 N   0  0  0  0  0  0  0  0  0  0  0  0
  1  2  2  0
  2  3  1  0
  3  4  1  0
  4  5  1  0
  5  6  1  0
  5  7  1  0
  7  8  1  0
  8  9  1  0
  9 10  1  0
 10 11  1  0
 11 12  2  0
 12 13  1  0
 13 14  2  0
 14 15  1  0
 15 16  2  0
 16 17  1  0
  2 18  1  0
 18 19  2  0
 19 20  1  0
 20 21  2  0
 21 22  1  0
 22 23  1  0
 23 24  1  0
 24 25  1  0
 25 26  1  0
 21 27  1  0
 27 28  1  0
 28 29  1  0
 29 30  1  0
 30 31  1  0
 31 32  1  0
 32 33  1  0
 33 34  1  0
 34 35  1  0
 27 36  2  0
 17  8  1  0
 36 18  1  0
 16 11  1  0
 26 22  1  0
 35 30  1  0
M  END
$$$$
