
     RDKit          3D

 19 22  0  0  0  0  0  0  0  0999 V2000
   19.1982   56.3957   15.4506 C   0  0  0  0  0  0  0  0  0  0  0  0
   18.1052   56.5749   14.4578 C   0  0  0  0  0  0  0  0  0  0  0  0
   17.1930   57.5410   14.3589 N   0  0  0  0  0  0  0  0  0  0  0  0
   16.3939   57.3293   13.3267 N   0  0  0  0  0  0  0  0  0  0  0  0
   15.3158   58.1842   12.9535 C   0  0  0  0  0  0  0  0  0  0  0  0
   15.3400   59.5288   13.2520 C   0  0  0  0  0  0  0  0  0  0  0  0
   14.2916   60.3433   12.8855 C   0  0  0  0  0  0  0  0  0  0  0  0
   13.2189   59.7809   12.2135 C   0  0  0  0  0  0  0  0  0  0  0  0
   12.0592   60.2880   11.7243 N   0  0  0  0  0  0  0  0  0  0  0  0
   11.3463   59.3392   11.1553 N   0  0  0  0  0  0  0  0  0  0  0  0
   12.0520   58.1947   11.2751 C   0  0  0  0  0  0  0  0  0  0  0  0
   13.2174   58.4631   11.9323 N   0  0  0  0  0  0  0  0  0  0  0  0
   14.2327   57.6984   12.2924 N   0  0  0  0  0  0  0  0  0  0  0  0
   16.7530   56.1975   12.6939 C   0  0  0  0  0  0  0  0  0  0  0  0
   16.2862   55.5128   11.5893 C   0  0  0  0  0  0  0  0  0  0  0  0
   16.8909   54.3298   11.1698 C   0  0  0  0  0  0  0  0  0  0  0  0
   17.9723   53.8320   11.8657 C   0  0  0  0  0  0  0  0  0  0  0  0
   18.4220   54.5326   12.9664 C   0  0  0  0  0  0  0  0  0  0  0  0
   17.8467   55.7049   13.4074 C   0  0  0  0  0  0  0  0  0  0  0  0
  1  2  1  0
  2  3  2  0
  3  4  1  0
  4  5  1  0
  5  6  1  0
  6  7  2  0
  7  8  1  0
  8  9  2  0
  9 10  1  0
 10 11  2  0
 11 12  1  0
 12 13  1  0
  4 14  1  0
 14 15  2  0
 15 16  1  0
 16 17  2  0
 17 18  1  0
 18 19  2  0
 19  2  1  0
 13  5  2  0
 19 14  1  0
 12  8  1  0
M  END
$$$$
