
     RDKit          3D

 40 43  0  0  0  0  0  0  0  0999 V2000
   19.6616   56.7914   11.6594 C   0  0  0  0  0  0  0  0  0  0  0  0
   18.6586   56.6983   12.6716 N   0  0  0  0  0  0  0  0  0  0  0  0
   19.2938   56.6315   13.9766 C   0  0  0  0  0  0  0  0  0  0  0  0
   18.2813   56.5893   15.0907 C   0  0  0  0  0  0  0  0  0  0  0  0
   16.9028   56.5600   14.4402 C   0  0  0  0  0  0  0  0  0  0  0  0
   16.7797   55.3728   13.5179 C   0  0  0  0  0  0  0  0  0  0  0  0
   17.1573   54.1019   14.2506 C   0  0  0  0  0  0  0  0  0  0  0  0
   15.9949   53.4994   14.7078 O   0  0  0  0  0  0  0  0  0  0  0  0
   15.9548   52.1964   14.2638 C   0  0  0  0  0  0  0  0  0  0  0  0
   15.1794   51.3571   15.2095 C   0  0  0  0  0  0  0  0  0  0  0  0
   13.8291   51.1653   15.1559 C   0  0  0  0  0  0  0  0  0  0  0  0
   13.1495   50.3697   16.0629 C   0  0  0  0  0  0  0  0  0  0  0  0
   11.6773   50.2035   15.9467 C   0  0  0  0  0  0  0  0  0  0  0  0
   11.1161   51.4754   15.8579 F   0  0  0  0  0  0  0  0  0  0  0  0
   11.3295   49.4167   14.8852 F   0  0  0  0  0  0  0  0  0  0  0  0
   11.2351   49.6708   17.1610 F   0  0  0  0  0  0  0  0  0  0  0  0
   13.8641   49.7428   17.0646 C   0  0  0  0  0  0  0  0  0  0  0  0
   15.2314   49.9203   17.1411 C   0  0  0  0  0  0  0  0  0  0  0  0
   15.9823   49.2419   18.2197 C   0  0  0  0  0  0  0  0  0  0  0  0
   15.1577   48.4062   18.9577 F   0  0  0  0  0  0  0  0  0  0  0  0
   16.5695   50.1222   19.0821 F   0  0  0  0  0  0  0  0  0  0  0  0
   17.0012   48.4607   17.6615 F   0  0  0  0  0  0  0  0  0  0  0  0
   15.8767   50.7152   16.2271 C   0  0  0  0  0  0  0  0  0  0  0  0
   15.4623   55.2667   12.9741 N   0  0  0  0  0  0  0  0  0  0  0  0
   14.3119   55.6289   13.7199 C   0  0  0  0  0  0  0  0  0  0  0  0
   14.1213   55.0813   14.8345 O   0  0  0  0  0  0  0  0  0  0  0  0
   13.3525   56.6283   13.2044 C   0  0  0  0  0  0  0  0  0  0  0  0
   12.0710   56.2765   12.9130 C   0  0  0  0  0  0  0  0  0  0  0  0
   11.2163   57.2317   12.4390 C   0  0  0  0  0  0  0  0  0  0  0  0
   10.0265   56.9170   12.1656 O   0  0  0  0  0  0  0  0  0  0  0  0
   11.6533   58.5152   12.2650 N   0  0  0  0  0  0  0  0  0  0  0  0
   12.9088   58.8650   12.5494 C   0  0  0  0  0  0  0  0  0  0  0  0
   13.3944   60.2275   12.3714 C   0  0  0  0  0  0  0  0  0  0  0  0
   12.6318   61.1549   11.6857 C   0  0  0  0  0  0  0  0  0  0  0  0
   13.0378   62.4567   11.4856 C   0  0  0  0  0  0  0  0  0  0  0  0
   14.2560   62.8662   11.9858 C   0  0  0  0  0  0  0  0  0  0  0  0
   15.0369   61.9828   12.6671 C   0  0  0  0  0  0  0  0  0  0  0  0
   14.5981   60.6793   12.8508 C   0  0  0  0  0  0  0  0  0  0  0  0
   13.7315   57.8934   13.0178 N   0  0  0  0  0  0  0  0  0  0  0  0
   17.8028   55.5715   12.4076 C   0  0  0  0  0  0  0  0  0  0  0  0
  1  2  1  0
  2  3  1  0
  3  4  1  0
  4  5  1  0
  5  6  1  0
  6  7  1  0
  7  8  1  0
  8  9  1  0
  9 10  1  0
 10 11  2  0
 11 12  1  0
 12 13  1  0
 13 14  1  0
 13 15  1  0
 13 16  1  0
 12 17  2  0
 17 18  1  0
 18 19  1  0
 19 20  1  0
 19 21  1  0
 19 22  1  0
 18 23  2  0
  6 24  1  0
 24 25  1  0
 25 26  2  0
 25 27  1  0
 27 28  2  0
 28 29  1  0
 29 30  2  0
 29 31  1  0
 31 32  1  0
 32 33  1  0
 33 34  2  0
 34 35  1  0
 35 36  2  0
 36 37  1  0
 37 38  2  0
 32 39  2  0
  6 40  1  0
 40  2  1  0
 23 10  1  0
 39 27  1  0
 38 33  1  0
M  END
$$$$
