
     RDKit          3D

 17 16  0  0  0  0  0  0  0  0999 V2000
   15.6673   46.9972   20.0824 C   0  0  0  0  0  0  0  0  0  0  0  0
   15.1486   47.7838   19.1811 C   0  0  0  0  0  0  0  0  0  0  0  0
   13.7072   48.1829   19.3299 C   0  0  0  0  0  0  0  0  0  0  0  0
   15.8476   48.3035   18.0018 C   0  0  0  0  0  0  0  0  0  0  0  0
   15.4069   47.7772   16.8183 O   0  0  0  0  0  0  0  0  0  0  0  0
   15.9732   49.7925   17.9072 C   0  0  0  0  0  0  0  0  0  0  0  0
   16.5899   50.2269   19.1060 O   0  0  0  0  0  0  0  0  0  0  0  0
   16.7506   50.2929   16.7233 C   0  0  0  0  0  0  0  0  0  0  0  0
   16.3324   51.5804   16.1748 C   0  0  0  0  0  0  0  0  0  0  0  0
   16.6400   52.1534   15.0516 C   0  0  0  0  0  0  0  0  0  0  0  0
   17.2203   51.3676   13.9106 C   0  0  0  0  0  0  0  0  0  0  0  0
   16.4502   53.5962   14.8222 C   0  0  0  0  0  0  0  0  0  0  0  0
   16.5631   53.8304   13.3264 C   0  0  0  0  0  0  0  0  0  0  0  0
   16.4516   55.2511   12.9700 C   0  0  0  0  0  0  0  0  0  0  0  0
   16.9717   55.7064   11.8525 C   0  0  0  0  0  0  0  0  0  0  0  0
   16.9303   54.9546   10.5661 C   0  0  0  0  0  0  0  0  0  0  0  0
   17.6595   57.0522   11.8073 C   0  0  0  0  0  0  0  0  0  0  0  0
  1  2  2  0
  2  3  1  0
  2  4  1  0
  4  5  1  0
  4  6  1  0
  6  7  1  0
  6  8  1  0
  8  9  1  0
  9 10  2  3
 10 11  1  0
 10 12  1  0
 12 13  1  0
 13 14  1  0
 14 15  2  3
 15 16  1  0
 15 17  1  0
M  END
$$$$
