
     RDKit          3D

 30 33  0  0  0  0  0  0  0  0999 V2000
   13.9672   64.2835   13.7086 C   0  0  0  0  0  0  0  0  0  0  0  0
   14.4484   63.0065   13.3746 O   0  0  0  0  0  0  0  0  0  0  0  0
   13.6744   62.0503   12.7366 C   0  0  0  0  0  0  0  0  0  0  0  0
   14.0610   60.7123   12.8491 C   0  0  0  0  0  0  0  0  0  0  0  0
   13.3230   59.7174   12.2308 C   0  0  0  0  0  0  0  0  0  0  0  0
   13.7145   58.3750   12.3641 C   0  0  0  0  0  0  0  0  0  0  0  0
   14.8773   58.0638   13.0980 N   0  0  0  0  0  0  0  0  0  0  0  0
   15.3906   56.7362   13.2018 C   0  0  0  0  0  0  0  0  0  0  0  0
   15.1954   55.9268   14.2946 C   0  0  0  0  0  0  0  0  0  0  0  0
   15.7409   54.6327   14.3404 C   0  0  0  0  0  0  0  0  0  0  0  0
   16.4859   54.1220   13.3069 C   0  0  0  0  0  0  0  0  0  0  0  0
   17.1719   52.5027   13.3604 Cl  0  0  0  0  0  0  0  0  0  0  0  0
   16.6854   54.9334   12.2030 C   0  0  0  0  0  0  0  0  0  0  0  0
   17.6441   54.2835   10.8763 Cl  0  0  0  0  0  0  0  0  0  0  0  0
   16.1509   56.1988   12.1601 C   0  0  0  0  0  0  0  0  0  0  0  0
   16.3575   56.9727   11.0765 F   0  0  0  0  0  0  0  0  0  0  0  0
   12.9225   57.4963   11.7376 N   0  0  0  0  0  0  0  0  0  0  0  0
   11.8356   57.8262   11.0293 C   0  0  0  0  0  0  0  0  0  0  0  0
   11.4840   59.1135   10.9178 N   0  0  0  0  0  0  0  0  0  0  0  0
   12.2100   60.0732   11.5087 C   0  0  0  0  0  0  0  0  0  0  0  0
   11.8092   61.3845   11.3829 C   0  0  0  0  0  0  0  0  0  0  0  0
   12.5589   62.3531   12.0075 C   0  0  0  0  0  0  0  0  0  0  0  0
   12.1784   63.6832   11.9036 O   0  0  0  0  0  0  0  0  0  0  0  0
   10.9745   63.9831   11.2305 C   0  0  0  0  0  0  0  0  0  0  0  0
   10.3891   65.2274   11.8703 C   0  0  0  0  0  0  0  0  0  0  0  0
   11.3777   66.3507   11.6996 C   0  0  0  0  0  0  0  0  0  0  0  0
   10.6240   67.6018   11.6593 N   0  0  0  0  0  0  0  0  0  0  0  0
    9.9144   67.6181   10.3846 C   0  0  0  0  0  0  0  0  0  0  0  0
    9.3751   66.2405   10.0637 C   0  0  0  0  0  0  0  0  0  0  0  0
    9.1821   65.4902   11.2251 O   0  0  0  0  0  0  0  0  0  0  0  0
  1  2  1  0
  2  3  1  0
  3  4  2  0
  4  5  1  0
  5  6  2  0
  6  7  1  0
  7  8  1  0
  8  9  2  0
  9 10  1  0
 10 11  2  0
 11 12  1  0
 11 13  1  0
 13 14  1  0
 13 15  2  0
 15 16  1  0
  6 17  1  0
 17 18  2  0
 18 19  1  0
 19 20  2  0
 20 21  1  0
 21 22  2  0
 22 23  1  0
 23 24  1  0
 24 25  1  0
 25 26  1  0
 26 27  1  0
 27 28  1  0
 28 29  1  0
 29 30  1  0
 22  3  1  0
 30 25  1  0
 20  5  1  0
 15  8  1  0
M  END
$$$$
