
     RDKit          3D

 34 39  0  0  0  0  0  0  0  0999 V2000
   13.7896   53.3431   13.1853 O   0  0  0  0  0  0  0  0  0  0  0  0
   14.6535   54.2206   13.3574 C   0  0  0  0  0  0  0  0  0  0  0  0
   14.3860   55.5003   12.8736 C   0  0  0  0  0  0  0  0  0  0  0  0
   13.1797   55.7301   12.2571 C   0  0  0  0  0  0  0  0  0  0  0  0
   12.8707   56.9401   11.8018 N   0  0  0  0  0  4  0  0  0  0  0  0
   11.6475   57.1852   11.1738 O   0  0  0  0  0  1  0  0  0  0  0  0
   13.7196   57.9686   11.9280 C   0  0  0  0  0  0  0  0  0  0  0  0
   13.3681   59.2176   11.4560 C   0  0  0  0  0  0  0  0  0  0  0  0
   14.2189   60.2851   11.5843 C   0  0  0  0  0  0  0  0  0  0  0  0
   15.4257   60.0940   12.1881 C   0  0  0  0  0  0  0  0  0  0  0  0
   15.8107   58.8385   12.6765 C   0  0  0  0  0  0  0  0  0  0  0  0
   14.9514   57.7968   12.5397 C   0  0  0  0  0  0  0  0  0  0  0  0
   15.3093   56.5401   13.0296 C   0  0  0  0  0  0  0  0  0  0  0  0
   16.4773   56.3307   13.6500 N   0  0  0  0  0  0  0  0  0  0  0  0
   17.5084   57.2469   13.8141 C   0  0  0  0  0  0  0  0  0  0  0  0
   17.4628   58.1653   14.9961 C   0  0  0  0  0  0  0  0  0  0  0  0
   18.5791   58.8479   15.4417 C   0  0  0  0  0  0  0  0  0  0  0  0
   18.5048   59.7111   16.5143 C   0  0  0  0  0  0  0  0  0  0  0  0
   17.3314   59.9367   17.1900 C   0  0  0  0  0  0  0  0  0  0  0  0
   16.2007   59.2759   16.7754 C   0  0  0  0  0  0  0  0  0  0  0  0
   16.3036   58.4154   15.6959 C   0  0  0  0  0  0  0  0  0  0  0  0
   16.6725   55.0399   14.1031 C   0  0  0  0  0  0  0  0  0  0  0  0
   17.7422   54.8216   14.6799 O   0  0  0  0  0  0  0  0  0  0  0  0
   15.8189   54.0374   13.9698 N   0  0  0  0  0  0  0  0  0  0  0  0
   16.1456   52.7401   14.4901 C   0  0  0  0  0  0  0  0  0  0  0  0
   15.0251   52.0406   15.1686 C   0  0  0  0  0  0  0  0  0  0  0  0
   14.1500   52.7033   16.0316 C   0  0  0  0  0  0  0  0  0  0  0  0
   13.1094   52.0402   16.6610 C   0  0  0  0  0  0  0  0  0  0  0  0
   12.8878   50.6966   16.4667 C   0  0  0  0  0  0  0  0  0  0  0  0
   13.7349   50.0191   15.6219 C   0  0  0  0  0  0  0  0  0  0  0  0
   14.7822   50.6949   14.9907 C   0  0  0  0  0  0  0  0  0  0  0  0
   13.2939   48.7040   15.6063 O   0  0  0  0  0  0  0  0  0  0  0  0
   12.4296   48.4558   16.6999 C   0  0  0  0  0  0  0  0  0  0  0  0
   11.9421   49.7830   16.9537 O   0  0  0  0  0  0  0  0  0  0  0  0
  1  2  2  0
  2  3  1  0
  3  4  2  0
  4  5  1  0
  5  6  1  0
  5  7  2  0
  7  8  1  0
  8  9  2  0
  9 10  1  0
 10 11  2  0
 11 12  1  0
 12 13  2  0
 13 14  1  0
 14 15  1  0
 15 16  1  0
 16 17  2  0
 17 18  1  0
 18 19  2  0
 19 20  1  0
 20 21  2  0
 14 22  1  0
 22 23  2  0
 22 24  1  0
 24 25  1  0
 25 26  1  0
 26 27  2  0
 27 28  1  0
 28 29  2  0
 29 30  1  0
 30 31  2  0
 30 32  1  0
 32 33  1  0
 33 34  1  0
 24  2  1  0
 31 26  1  0
 13  3  1  0
 21 16  1  0
 34 29  1  0
 12  7  1  0
M  CHG  2   5   1   6  -1
M  END
$$$$
