
     RDKit          3D

 18 20  0  0  0  0  0  0  0  0999 V2000
   14.1970   61.9820   10.9295 N   0  0  0  0  0  0  0  0  0  0  0  0
   14.4139   61.0553   11.5916 C   0  0  0  0  0  0  0  0  0  0  0  0
   14.6841   59.8598   12.4158 C   0  0  0  0  0  0  0  0  0  0  0  0
   13.4016   59.2216   12.8866 C   0  0  0  0  0  0  0  0  0  0  0  0
   13.5854   58.0290   13.7904 C   0  0  0  0  0  0  0  0  0  0  0  0
   14.2305   56.9234   13.1340 N   0  0  0  0  0  0  0  0  0  0  0  0
   13.6641   56.0022   12.3336 C   0  0  0  0  0  0  0  0  0  0  0  0
   14.5696   55.1166   11.8974 N   0  0  0  0  0  0  0  0  0  0  0  0
   15.7538   55.4467   12.4098 C   0  0  0  0  0  0  0  0  0  0  0  0
   17.0121   54.8865   12.2915 C   0  0  0  0  0  0  0  0  0  0  0  0
   17.2779   53.4612   11.3155 Cl  0  0  0  0  0  0  0  0  0  0  0  0
   18.0119   55.4907   12.9609 N   0  0  0  0  0  0  0  0  0  0  0  0
   17.8027   56.5984   13.7188 C   0  0  0  0  0  0  0  0  0  0  0  0
   19.1719   57.3092   14.5507 Cl  0  0  0  0  0  0  0  0  0  0  0  0
   16.5658   57.1318   13.8224 N   0  0  0  0  0  0  0  0  0  0  0  0
   15.5404   56.5771   13.1831 C   0  0  0  0  0  0  0  0  0  0  0  0
   12.2940   60.2036   13.2991 C   0  0  0  0  0  0  0  0  0  0  0  0
   12.1881   59.3848   12.0666 C   0  0  0  0  0  0  0  0  0  0  0  0
  1  2  3  0
  2  3  1  0
  3  4  1  0
  4  5  1  0
  5  6  1  0
  6  7  1  0
  7  8  2  0
  8  9  1  0
  9 10  2  0
 10 11  1  0
 10 12  1  0
 12 13  2  0
 13 14  1  0
 13 15  1  0
 15 16  2  0
  4 17  1  0
 17 18  1  0
 18  4  1  0
 16  6  1  0
 16  9  1  0
M  END
$$$$
