
     RDKit          3D

 23 25  0  0  0  0  0  0  0  0999 V2000
   19.7859   49.2244   18.4608 C   0  0  0  0  0  2  0  0  0  0  0  0
   18.5422   48.4107   18.2485 C   0  0  0  0  0  0  0  0  0  0  0  0
   17.3495   49.2192   18.4140 N   0  0  0  0  0  0  0  0  0  0  0  0
   16.6968   49.7386   17.2677 C   0  0  0  0  0  0  0  0  0  0  0  0
   17.4079   49.9536   16.2522 O   0  0  0  0  0  0  0  0  0  0  0  0
   15.2574   50.0346   17.2018 C   0  0  0  0  0  0  0  0  0  0  0  0
   15.0895   51.3780   16.6276 N   0  0  0  0  0  0  0  0  0  0  0  0
   16.0749   51.9671   15.8081 C   0  0  0  0  0  0  0  0  0  0  0  0
   17.2010   51.4099   15.7515 O   0  0  0  0  0  0  0  0  0  0  0  0
   15.8682   53.1736   15.0286 C   0  0  0  0  0  0  0  0  0  0  0  0
   16.9645   53.8748   14.5796 C   0  0  0  0  0  0  0  0  0  0  0  0
   16.8070   55.0370   13.8289 C   0  0  0  0  0  0  0  0  0  0  0  0
   15.5245   55.4910   13.5317 C   0  0  0  0  0  0  0  0  0  0  0  0
   14.4293   54.7832   13.9851 C   0  0  0  0  0  0  0  0  0  0  0  0
   14.5989   53.6298   14.7301 C   0  0  0  0  0  0  0  0  0  0  0  0
   13.1731   55.2754   13.6634 O   0  0  0  0  0  0  0  0  0  0  0  0
   13.0515   56.6237   13.2395 C   0  0  0  0  0  0  0  0  0  0  0  0
   14.1093   56.8868   12.1881 C   0  0  0  0  0  0  0  0  0  0  0  0
   15.3682   56.6503   12.7830 O   0  0  0  0  0  0  0  0  0  0  0  0
   14.6816   49.9893   18.5702 C   0  0  0  0  0  0  0  0  0  0  0  0
   13.7946   48.7775   18.5892 C   0  0  0  0  0  0  0  0  0  0  0  0
   13.2401   48.7145   17.2039 C   0  0  0  0  0  0  0  0  0  0  0  0
   14.4916   49.0302   16.3715 C   0  0  0  0  0  0  0  0  0  0  0  0
  1  2  1  0
  2  3  1  0
  3  4  1  0
  4  5  2  0
  4  6  1  0
  6  7  1  0
  7  8  1  0
  8  9  2  0
  8 10  1  0
 10 11  2  0
 11 12  1  0
 12 13  2  0
 13 14  1  0
 14 15  2  0
 14 16  1  0
 16 17  1  0
 17 18  1  0
 18 19  1  0
  6 20  1  0
 20 21  1  0
 21 22  1  0
 22 23  1  0
 23  6  1  0
 15 10  1  0
 19 13  1  0
M  RAD  1   1   3
M  END
$$$$
