
     RDKit          3D

 22 24  0  0  0  0  0  0  0  0999 V2000
   16.1795   46.7237   19.8690 F   0  0  0  0  0  0  0  0  0  0  0  0
   15.9988   47.7933   19.0362 C   0  0  0  0  0  0  0  0  0  0  0  0
   16.9460   48.7632   18.9098 C   0  0  0  0  0  0  0  0  0  0  0  0
   16.7171   49.8279   18.0530 C   0  0  0  0  0  0  0  0  0  0  0  0
   15.5513   49.9301   17.3232 C   0  0  0  0  0  0  0  0  0  0  0  0
   15.3503   51.0658   16.4343 C   0  0  0  0  0  0  0  0  0  0  0  0
   14.2552   51.2313   15.5967 C   0  0  0  0  0  0  0  0  0  0  0  0
   14.4592   52.3852   14.9646 N   0  0  0  0  0  0  0  0  0  0  0  0
   15.6207   52.9285   15.3747 C   0  0  0  0  0  0  0  0  0  0  0  0
   16.2279   54.2106   14.9252 C   0  0  0  0  0  0  0  0  0  0  0  0
   15.2792   54.8521   14.0519 N   0  0  0  0  0  0  0  0  0  0  0  0
   15.9064   55.5236   12.9347 C   0  0  0  0  0  0  0  0  0  0  0  0
   15.8945   56.9975   13.1837 C   0  0  0  0  0  0  0  0  0  0  0  0
   14.7832   57.6870   12.4783 C   0  0  0  0  0  0  0  0  0  0  0  0
   13.8570   56.9886   11.7310 C   0  0  0  0  0  0  0  0  0  0  0  0
   12.8184   57.6335   11.0697 C   0  0  0  0  0  0  0  0  0  0  0  0
   12.7003   59.0037   11.1552 C   0  0  0  0  0  0  0  0  0  0  0  0
   13.6064   59.6772   11.8851 N   0  0  0  0  0  0  0  0  0  0  0  0
   14.6184   59.0566   12.5302 C   0  0  0  0  0  0  0  0  0  0  0  0
   16.1207   52.1080   16.2527 O   0  0  0  0  0  0  0  0  0  0  0  0
   14.6203   48.9329   17.4774 C   0  0  0  0  0  0  0  0  0  0  0  0
   14.8285   47.8699   18.3215 C   0  0  0  0  0  0  0  0  0  0  0  0
  1  2  1  0
  2  3  2  0
  3  4  1  0
  4  5  2  0
  5  6  1  0
  6  7  2  0
  7  8  1  0
  8  9  2  0
  9 10  1  0
 10 11  1  0
 11 12  1  0
 12 13  1  0
 13 14  1  0
 14 15  2  0
 15 16  1  0
 16 17  2  0
 17 18  1  0
 18 19  2  0
  9 20  1  0
  5 21  1  0
 21 22  2  0
 22  2  1  0
 20  6  1  0
 19 14  1  0
M  END
$$$$
