
     RDKit          3D

 35 38  0  0  0  0  0  0  0  0999 V2000
   16.8277   53.3609   12.8716 C   0  0  0  0  0  0  0  0  0  0  0  0
   16.3730   54.3650   13.9186 C   0  0  0  0  0  0  0  0  0  0  0  0
   17.2327   55.5057   13.9988 N   0  0  0  0  0  0  0  0  0  0  0  0
   18.6282   55.3164   14.4874 C   0  0  0  0  0  0  0  0  0  0  0  0
   18.5686   55.0695   15.9781 C   0  0  0  0  0  0  0  0  0  0  0  0
   19.9553   54.7583   16.4796 C   0  0  0  0  0  0  0  0  0  0  0  0
   20.0807   53.3901   16.7686 O   0  0  0  0  0  0  0  0  0  0  0  0
   16.8373   56.8107   13.7148 C   0  0  0  0  0  0  0  0  0  0  0  0
   17.5965   57.7952   14.1484 O   0  0  0  0  0  0  0  0  0  0  0  0
   15.6435   57.1925   12.9835 C   0  0  0  0  0  0  0  0  0  0  0  0
   15.4176   56.3981   11.8855 N   0  0  0  0  0  0  0  0  0  0  0  0
   14.3561   56.6052   11.1318 C   0  0  0  0  0  0  0  0  0  0  0  0
   13.4782   57.6266   11.4517 C   0  0  0  0  0  0  0  0  0  0  0  0
   12.3627   57.9947   10.8504 N   0  0  0  0  0  0  0  0  0  0  0  0
   11.8582   59.0143   11.5153 C   0  0  0  0  0  0  0  0  0  0  0  0
   10.7933   59.5980   11.2085 O   0  0  0  0  0  0  0  0  0  0  0  0
   12.6527   59.3407   12.5855 N   0  0  0  0  0  0  0  0  0  0  0  0
   12.4342   60.4582   13.4570 C   0  0  0  0  0  0  0  0  0  0  0  0
   12.8127   61.7579   12.8251 C   0  0  0  0  0  0  0  0  0  0  0  0
   13.3240   61.8739   11.5755 C   0  0  0  0  0  0  0  0  0  0  0  0
   13.5836   63.1148   10.9831 C   0  0  0  0  0  0  0  0  0  0  0  0
   13.3220   64.2953   11.6716 C   0  0  0  0  0  0  0  0  0  0  0  0
   13.5701   65.5128   11.0550 O   0  0  0  0  0  0  0  0  0  0  0  0
   13.1894   66.7794   11.4482 C   0  0  0  0  0  0  0  0  0  0  0  0
   13.5488   67.9274   10.5887 C   0  0  0  0  0  0  0  0  0  0  0  0
   13.5974   69.2152   11.2417 N   0  0  0  0  0  0  0  0  0  0  0  0
   14.9255   69.5086   11.7418 C   0  0  0  0  0  0  0  0  0  0  0  0
   14.8906   69.4880   13.2452 C   0  0  0  0  0  0  0  0  0  0  0  0
   13.4320   69.3503   13.6164 C   0  0  0  0  0  0  0  0  0  0  0  0
   12.6905   69.4589   12.2940 C   0  0  0  0  0  0  0  0  0  0  0  0
   12.8113   64.1991   12.9361 C   0  0  0  0  0  0  0  0  0  0  0  0
   12.5635   62.9293   13.4980 C   0  0  0  0  0  0  0  0  0  0  0  0
   13.6632   58.4699   12.5579 C   0  0  0  0  0  0  0  0  0  0  0  0
   14.7980   58.2057   13.3291 C   0  0  0  0  0  0  0  0  0  0  0  0
   14.9412   58.9696   14.5895 C   0  0  0  0  0  0  0  0  0  0  0  0
  1  2  1  0
  2  3  1  0
  3  4  1  0
  4  5  1  0
  5  6  1  0
  6  7  1  0
  3  8  1  0
  8  9  2  0
  8 10  1  0
 10 11  2  0
 11 12  1  0
 12 13  2  0
 13 14  1  0
 14 15  1  0
 15 16  2  0
 15 17  1  0
 17 18  1  0
 18 19  1  0
 19 20  2  0
 20 21  1  0
 21 22  2  0
 22 23  1  0
 23 24  1  0
 24 25  1  0
 25 26  1  0
 26 27  1  0
 27 28  1  0
 28 29  1  0
 29 30  1  0
 22 31  1  0
 31 32  2  0
 17 33  1  0
 33 34  2  0
 34 35  1  0
 34 10  1  0
 33 13  1  0
 32 19  1  0
 30 26  1  0
M  END
$$$$
