
     RDKit          3D

 29 33  0  0  0  0  0  0  0  0999 V2000
   17.4596   58.2556   16.4454 N   0  0  0  0  0  0  0  0  0  0  0  0
   16.9922   57.8182   15.4097 C   0  0  0  0  0  0  0  0  0  0  0  0
   16.4454   57.3380   14.2327 C   0  0  0  0  0  0  0  0  0  0  0  0
   15.1642   57.7894   13.8334 C   0  0  0  0  0  0  0  0  0  0  0  0
   14.5728   57.3518   12.6874 C   0  0  0  0  0  0  0  0  0  0  0  0
   13.2461   57.8083   12.2662 C   0  0  0  0  0  0  0  0  0  0  0  0
   12.3229   56.8929   11.7654 C   0  0  0  0  0  0  0  0  0  0  0  0
   11.0798   57.3502   11.3813 C   0  0  0  0  0  0  0  0  0  0  0  0
   10.8019   58.6475   11.4998 N   0  0  0  0  0  0  0  0  0  0  0  0
   11.6614   59.5631   11.9750 C   0  0  0  0  0  0  0  0  0  0  0  0
   11.6029   60.8960   12.1597 N   0  0  0  0  0  0  0  0  0  0  0  0
   12.7625   61.3776   12.6626 C   0  0  0  0  0  0  0  0  0  0  0  0
   13.0637   62.7848   12.9581 C   0  0  0  0  0  0  0  0  0  0  0  0
   14.1643   63.2196   13.6707 C   0  0  0  0  0  0  0  0  0  0  0  0
   14.1245   64.6203   13.7670 C   0  0  0  0  0  0  0  0  0  0  0  0
   12.9913   64.9955   13.1026 C   0  0  0  0  0  0  0  0  0  0  0  0
   12.3914   63.8939   12.6398 N   0  0  0  0  0  0  0  0  0  0  0  0
   13.5860   60.2821   12.7974 C   0  0  0  0  0  0  0  0  0  0  0  0
   12.9439   59.1361   12.3807 C   0  0  0  0  0  0  0  0  0  0  0  0
   15.2787   56.4449   11.9258 C   0  0  0  0  0  0  0  0  0  0  0  0
   16.5151   55.9997   12.2957 C   0  0  0  0  0  0  0  0  0  0  0  0
   17.1593   56.4301   13.4767 C   0  0  0  0  0  0  0  0  0  0  0  0
   18.3684   55.9290   13.7327 O   0  0  0  0  0  0  0  0  0  0  0  0
   18.9963   54.8152   14.1525 C   0  0  0  0  0  0  0  0  0  0  0  0
   18.4520   53.6418   13.3378 C   0  0  0  0  0  0  0  0  0  0  0  0
   19.2117   52.4054   13.6478 C   0  0  0  0  0  0  0  0  0  0  0  0
   20.3118   52.7014   14.4543 O   0  0  0  0  0  0  0  0  0  0  0  0
   21.1414   53.6310   13.8173 C   0  0  0  0  0  0  0  0  0  0  0  0
   20.4762   54.9621   13.6680 C   0  0  0  0  0  0  0  0  0  0  0  0
  1  2  3  0
  2  3  1  0
  3  4  2  0
  4  5  1  0
  5  6  1  0
  6  7  2  0
  7  8  1  0
  8  9  2  0
  9 10  1  0
 10 11  1  0
 11 12  1  0
 12 13  1  0
 13 14  2  0
 14 15  1  0
 15 16  2  0
 16 17  1  0
 12 18  2  0
 18 19  1  0
  5 20  2  0
 20 21  1  0
 21 22  2  0
 22 23  1  0
 23 24  1  0
 24 25  1  0
 25 26  1  0
 26 27  1  0
 27 28  1  0
 28 29  1  0
 22  3  1  0
 29 24  1  0
 19  6  1  0
 19 10  2  0
 17 13  1  0
M  END
$$$$
