
     RDKit          3D

 24 25  0  0  0  0  0  0  0  0999 V2000
   28.2322   79.9523   52.5193 C   0  0  0  0  0  0  0  0  0  0  0  0
   28.7500   81.2332   52.2441 O   0  0  0  0  0  0  0  0  0  0  0  0
   29.9731   81.3978   51.5681 C   0  0  0  0  0  0  0  0  0  0  0  0
   30.3416   80.5711   50.5373 C   0  0  0  0  0  0  0  0  0  0  0  0
   31.5443   80.7560   49.8944 C   0  0  0  0  0  0  0  0  0  0  0  0
   32.4196   81.7587   50.2459 C   0  0  0  0  0  0  0  0  0  0  0  0
   33.7075   81.9433   49.5441 C   0  0  0  0  0  0  0  0  0  0  0  0
   33.5383   82.9565   48.4371 C   0  0  0  0  0  0  0  0  0  0  0  0
   34.7347   82.3848   50.5019 N   0  0  0  0  0  0  0  0  0  0  0  0
   35.9505   81.7045   50.6232 C   0  0  0  0  0  0  0  0  0  0  0  0
   36.0274   80.6136   49.9335 O   0  0  0  0  0  0  0  0  0  0  0  0
   37.0893   82.1032   51.4261 C   0  0  0  0  0  0  0  0  0  0  0  0
   38.2439   82.6866   50.9807 C   0  0  0  0  0  0  0  0  0  0  0  0
   38.3872   82.9414   49.6450 O   0  0  0  0  0  0  0  0  0  0  0  0
   39.4574   83.5778   49.0219 C   0  0  0  0  0  0  0  0  0  0  0  0
   39.2964   83.0379   51.8431 C   0  0  0  0  0  0  0  0  0  0  0  0
   39.2071   82.8056   53.1925 C   0  0  0  0  0  0  0  0  0  0  0  0
   38.0533   82.2200   53.6561 C   0  0  0  0  0  0  0  0  0  0  0  0
   37.0273   81.8794   52.8024 C   0  0  0  0  0  0  0  0  0  0  0  0
   35.8762   81.2858   53.3308 O   0  0  0  0  0  0  0  0  0  0  0  0
   35.9053   80.5682   54.5336 C   0  0  0  0  0  0  0  0  0  0  0  0
   32.0336   82.5828   51.2861 C   0  0  0  0  0  0  0  0  0  0  0  0
   30.8306   82.4115   51.9421 C   0  0  0  0  0  0  0  0  0  0  0  0
   30.4532   83.2223   52.9638 F   0  0  0  0  0  0  0  0  0  0  0  0
  1  2  1  0
  2  3  1  0
  3  4  2  0
  4  5  1  0
  5  6  2  0
  6  7  1  0
  7  8  1  0
  7  9  1  0
  9 10  1  0
 10 11  2  0
 10 12  1  0
 12 13  2  0
 13 14  1  0
 14 15  1  0
 13 16  1  0
 16 17  2  0
 17 18  1  0
 18 19  2  0
 19 20  1  0
 20 21  1  0
  6 22  1  0
 22 23  2  0
 23 24  1  0
 23  3  1  0
 19 12  1  0
M  END
$$$$
