
     RDKit          3D

 30 33  0  0  0  0  0  0  0  0999 V2000
    9.3979  100.2831   61.4332 C   0  0  0  0  0  0  0  0  0  0  0  0
    9.6184   98.7803   61.5047 C   0  0  0  0  0  0  0  0  0  0  0  0
   11.0388   98.4578   61.1478 C   0  0  1  0  0  0  0  0  0  0  0  0
   11.3362   97.0450   61.3669 N   0  0  0  0  0  0  0  0  0  0  0  0
   12.6554   96.6508   61.7091 C   0  0  0  0  0  0  0  0  0  0  0  0
   13.6367   97.4220   61.5256 O   0  0  0  0  0  0  0  0  0  0  0  0
   12.9049   95.3362   62.2829 C   0  0  0  0  0  0  0  0  0  0  0  0
   12.0066   94.3464   62.6176 C   0  0  0  0  0  0  0  0  0  0  0  0
   12.6756   93.2599   63.1208 C   0  0  0  0  0  0  0  0  0  0  0  0
   12.1221   91.9750   63.6013 C   0  0  0  0  0  0  0  0  0  0  0  0
   12.6665   90.9450   63.1497 O   0  0  0  0  0  0  0  0  0  0  0  0
   11.0426   91.8911   64.5138 N   0  0  0  0  0  0  0  0  0  0  0  0
   10.3733   93.1005   65.0155 C   0  0  0  0  0  0  0  0  0  0  0  0
    9.3909   92.6425   66.0826 C   0  0  0  0  0  0  0  0  0  0  0  0
    8.4239   91.7065   65.5946 N   0  0  0  0  0  0  0  0  0  0  0  0
    9.0016   90.7169   64.6995 C   0  0  0  0  0  0  0  0  0  0  0  0
   10.4899   90.6580   65.0208 C   0  0  1  0  0  0  0  0  0  0  0  0
   11.1209   89.4186   64.4353 C   0  0  0  0  0  0  0  0  0  0  0  0
   14.0020   93.5605   63.1058 N   0  0  0  0  0  0  0  0  0  0  0  0
   14.1461   94.7899   62.6105 C   0  0  0  0  0  0  0  0  0  0  0  0
   15.4969   95.4100   62.4701 C   0  0  0  0  0  0  0  0  0  0  0  0
   16.3239   94.8400   63.4355 O   0  0  0  0  0  0  0  0  0  0  0  0
   16.4196   93.4772   63.1918 C   0  0  0  0  0  0  0  0  0  0  0  0
   15.1545   92.7443   63.5381 C   0  0  0  0  0  0  0  0  0  0  0  0
   11.2946   98.7921   59.7316 C   0  0  0  0  0  0  0  0  0  0  0  0
   12.0112   99.9237   59.4311 C   0  0  0  0  0  0  0  0  0  0  0  0
   12.2368  100.2205   58.0790 C   0  0  0  0  0  0  0  0  0  0  0  0
   11.7425   99.3840   57.0906 C   0  0  0  0  0  0  0  0  0  0  0  0
   11.0218   98.2477   57.4286 C   0  0  0  0  0  0  0  0  0  0  0  0
   10.7949   97.9470   58.7416 C   0  0  0  0  0  0  0  0  0  0  0  0
  1  2  1  0
  3  2  1  6
  3  4  1  0
  4  5  1  0
  5  6  2  0
  5  7  1  0
  7  8  1  0
  8  9  2  0
  9 10  1  0
 10 11  2  0
 10 12  1  0
 12 13  1  0
 13 14  1  0
 14 15  1  0
 15 16  1  0
 16 17  1  0
 17 18  1  6
  9 19  1  0
 19 20  1  0
 20 21  1  0
 21 22  1  0
 22 23  1  0
 23 24  1  0
  3 25  1  0
 25 26  2  0
 26 27  1  0
 27 28  2  0
 28 29  1  0
 29 30  2  0
 20  7  2  0
 30 25  1  0
 17 12  1  0
 24 19  1  0
M  END
$$$$
