
     RDKit          3D

 23 23  0  0  0  0  0  0  0  0999 V2000
   39.8089   81.4316   54.0387 C   0  0  0  0  0  0  0  0  0  0  0  0
   38.4835   81.0817   54.3864 O   0  0  0  0  0  0  0  0  0  0  0  0
   37.4601   81.2664   53.4902 C   0  0  0  0  0  0  0  0  0  0  0  0
   36.1840   81.4455   53.9284 C   0  0  0  0  0  0  0  0  0  0  0  0
   35.1561   81.6296   53.0566 C   0  0  0  0  0  0  0  0  0  0  0  0
   35.3357   81.6477   51.6586 C   0  0  0  0  0  0  0  0  0  0  0  0
   34.1796   81.8783   50.8807 N   0  0  0  0  0  0  0  0  0  0  0  0
   32.9238   82.3592   51.2936 C   0  0  0  0  0  0  0  0  0  0  0  0
   32.6933   82.6389   52.4833 O   0  0  0  0  0  0  0  0  0  0  0  0
   31.8595   82.5452   50.3514 N   0  0  0  0  0  0  0  0  0  0  0  0
   32.1301   82.2302   48.9534 C   0  0  0  0  0  0  0  0  0  0  0  0
   30.5540   83.0316   50.7342 C   0  0  0  0  0  0  0  0  0  0  0  0
   29.6345   81.9309   51.2088 C   0  0  0  0  0  0  0  0  0  0  0  0
   29.2880   82.2424   52.6558 C   0  0  0  0  0  0  0  0  0  0  0  0
   28.8716   81.0870   53.2507 F   0  0  0  0  0  0  0  0  0  0  0  0
   28.2428   83.1709   52.6889 F   0  0  0  0  0  0  0  0  0  0  0  0
   30.3566   82.8388   53.2667 F   0  0  0  0  0  0  0  0  0  0  0  0
   36.6165   81.4695   51.2110 C   0  0  0  0  0  0  0  0  0  0  0  0
   36.8955   81.4755   49.8957 O   0  0  0  0  0  0  0  0  0  0  0  0
   36.9900   82.4740   48.9508 C   0  0  0  0  0  0  0  0  0  0  0  0
   37.9580   83.3907   49.3974 F   0  0  0  0  0  0  0  0  0  0  0  0
   37.3614   81.9933   47.6933 F   0  0  0  0  0  0  0  0  0  0  0  0
   37.6652   81.2808   52.1113 C   0  0  0  0  0  0  0  0  0  0  0  0
  1  2  1  0
  2  3  1  0
  3  4  2  0
  4  5  1  0
  5  6  2  0
  6  7  1  0
  7  8  1  0
  8  9  2  0
  8 10  1  0
 10 11  1  0
 10 12  1  0
 12 13  1  0
 13 14  1  0
 14 15  1  0
 14 16  1  0
 14 17  1  0
  6 18  1  0
 18 19  1  0
 19 20  1  0
 20 21  1  0
 20 22  1  0
 18 23  2  0
 23  3  1  0
M  END
$$$$
