
     RDKit          3D

 32 35  0  0  0  0  0  0  0  0999 V2000
   36.0607   81.3419   47.2474 C   0  0  0  0  0  0  0  0  0  0  0  0
   34.6604   81.5743   47.6860 C   0  0  0  0  0  0  0  0  0  0  0  0
   33.5706   81.7758   46.8851 C   0  0  0  0  0  0  0  0  0  0  0  0
   33.4070   81.7911   45.4440 C   0  0  0  0  0  0  0  0  0  0  0  0
   34.4180   81.6149   44.6743 O   0  0  0  0  0  0  0  0  0  0  0  0
   32.1840   81.9924   44.7638 N   0  0  0  0  0  0  0  0  0  0  0  0
   32.2038   82.2271   43.3162 C   0  0  0  0  0  0  0  0  0  0  0  0
   30.9242   82.9158   42.9462 C   0  0  0  0  0  0  0  0  0  0  0  0
   29.7150   82.0663   43.1578 C   0  0  0  0  0  0  0  0  0  0  0  0
   29.2322   81.5666   41.8759 N   0  0  0  0  0  0  0  0  0  0  0  0
   29.5631   80.3983   41.3045 C   0  0  0  0  0  0  0  0  0  0  0  0
   28.8726   80.3420   40.1029 C   0  0  0  0  0  0  0  0  0  0  0  0
   28.1471   81.4808   39.9901 N   0  0  0  0  0  0  0  0  0  0  0  0
   28.3759   82.2265   41.0860 C   0  0  0  0  0  0  0  0  0  0  0  0
   32.5486   81.9574   47.7268 N   0  0  0  0  0  0  0  0  0  0  0  0
   32.9350   81.8794   49.0271 C   0  0  0  0  0  0  0  0  0  0  0  0
   31.9578   82.1246   50.0789 C   0  0  0  0  0  0  0  0  0  0  0  0
   32.3595   82.9471   51.1479 C   0  0  0  0  0  0  0  0  0  0  0  0
   31.5352   83.3065   52.1805 C   0  0  0  0  0  0  0  0  0  0  0  0
   30.2474   82.8164   52.1364 C   0  0  0  0  0  0  0  0  0  0  0  0
   29.1561   83.2565   53.4505 Cl  0  0  0  0  0  0  0  0  0  0  0  0
   29.8307   82.0152   51.1066 C   0  0  0  0  0  0  0  0  0  0  0  0
   30.6807   81.6559   50.0570 C   0  0  0  0  0  0  0  0  0  0  0  0
   29.9712   80.7037   48.7759 Cl  0  0  0  0  0  0  0  0  0  0  0  0
   34.2310   81.6457   49.0003 N   0  0  0  0  0  0  0  0  0  0  0  0
   35.1412   81.5372   50.0834 C   0  0  0  0  0  0  0  0  0  0  0  0
   35.5930   80.3010   50.5689 C   0  0  0  0  0  0  0  0  0  0  0  0
   36.4486   80.2252   51.6496 C   0  0  0  0  0  0  0  0  0  0  0  0
   36.8902   81.3840   52.2928 C   0  0  0  0  0  0  0  0  0  0  0  0
   37.9711   81.2660   53.6566 Cl  0  0  0  0  0  0  0  0  0  0  0  0
   36.4495   82.6028   51.8201 C   0  0  0  0  0  0  0  0  0  0  0  0
   35.6033   82.6694   50.7506 C   0  0  0  0  0  0  0  0  0  0  0  0
  1  2  1  0
  2  3  2  0
  3  4  1  0
  4  5  2  0
  4  6  1  0
  6  7  1  0
  7  8  1  0
  8  9  1  0
  9 10  1  0
 10 11  1  0
 11 12  2  0
 12 13  1  0
 13 14  2  0
  3 15  1  0
 15 16  2  0
 16 17  1  0
 17 18  2  0
 18 19  1  0
 19 20  2  0
 20 21  1  0
 20 22  1  0
 22 23  2  0
 23 24  1  0
 16 25  1  0
 25 26  1  0
 26 27  2  0
 27 28  1  0
 28 29  2  0
 29 30  1  0
 29 31  1  0
 31 32  2  0
 25  2  1  0
 32 26  1  0
 14 10  1  0
 23 17  1  0
M  END
$$$$
