
     RDKit          3D

 21 22  0  0  0  0  0  0  0  0999 V2000
   36.8231   83.6958   51.2926 C   0  0  0  0  0  0  0  0  0  0  0  0
   37.3547   82.3589   50.8731 C   0  0  0  0  0  0  0  0  0  0  0  0
   36.1517   81.6577   49.6831 S   0  0  0  0  0  0  0  0  0  0  0  0
   34.4928   81.9563   50.2977 C   0  0  0  0  0  0  0  0  0  0  0  0
   33.3615   81.5269   49.6877 N   0  0  0  0  0  0  0  0  0  0  0  0
   32.2897   81.9134   50.3994 C   0  0  0  0  0  0  0  0  0  0  0  0
   30.9334   81.7429   50.2276 C   0  0  0  0  0  0  0  0  0  0  0  0
   30.0402   82.2772   51.1657 C   0  0  0  0  0  0  0  0  0  0  0  0
   28.3109   82.0710   50.9649 Cl  0  0  0  0  0  0  0  0  0  0  0  0
   30.4899   82.9774   52.2691 C   0  0  0  0  0  0  0  0  0  0  0  0
   31.8499   83.1380   52.4244 C   0  0  0  0  0  0  0  0  0  0  0  0
   32.7511   82.6116   51.4986 C   0  0  0  0  0  0  0  0  0  0  0  0
   34.0933   82.6077   51.3877 N   0  0  0  0  0  0  0  0  0  0  0  0
   37.3369   81.4331   52.0644 C   0  0  0  0  0  0  0  0  0  0  0  0
   36.2518   81.3188   52.6701 O   0  0  0  0  0  0  0  0  0  0  0  0
   38.4684   80.7355   52.4772 N   0  0  0  0  0  0  0  0  0  0  0  0
   38.5390   79.9088   53.6314 C   0  0  0  0  0  0  0  0  0  0  0  0
   37.6981   78.6793   53.4794 C   0  0  0  0  0  0  0  0  0  0  0  0
   37.7434   77.9734   54.6933 F   0  0  0  0  0  0  0  0  0  0  0  0
   38.2516   77.8198   52.5106 F   0  0  0  0  0  0  0  0  0  0  0  0
   36.4249   78.9051   53.1017 F   0  0  0  0  0  0  0  0  0  0  0  0
  1  2  1  0
  2  3  1  0
  3  4  1  0
  4  5  2  0
  5  6  1  0
  6  7  2  0
  7  8  1  0
  8  9  1  0
  8 10  2  0
 10 11  1  0
 11 12  2  0
 12 13  1  0
  2 14  1  0
 14 15  2  0
 14 16  1  0
 16 17  1  0
 17 18  1  0
 18 19  1  0
 18 20  1  0
 18 21  1  0
 13  4  1  0
 12  6  1  0
M  END
$$$$
