
     RDKit          3D

 31 36  0  0  0  0  0  0  0  0999 V2000
   11.6176   91.6227   63.1047 C   0  0  0  0  0  0  0  0  0  0  0  0
   12.5299   92.7042   62.9262 N   0  0  0  0  0  0  0  0  0  0  0  0
   12.1812   93.9728   62.6547 C   0  0  0  0  0  0  0  0  0  0  0  0
   10.8308   94.5367   62.4806 C   0  0  0  0  0  0  0  0  0  0  0  0
   10.7985   95.7708   61.7092 C   0  0  0  0  0  0  0  0  0  0  0  0
    9.9093   96.7740   61.9702 C   0  0  0  0  0  0  0  0  0  0  0  0
    9.8671   97.9466   61.2491 C   0  0  0  0  0  0  0  0  0  0  0  0
   10.7479   98.1426   60.2148 C   0  0  0  0  0  0  0  0  0  0  0  0
   10.7153   99.4092   59.4226 C   0  0  0  0  0  0  0  0  0  0  0  0
    9.7893  100.3991   59.7608 C   0  0  0  0  0  0  0  0  0  0  0  0
   10.2406  101.6522   58.4628 S   0  0  0  0  0  0  0  0  0  0  0  0
   11.5991  100.5747   57.7220 C   0  0  0  0  0  0  0  0  0  0  0  0
   12.3560  101.0760   56.5899 C   0  0  0  0  0  0  0  0  0  0  0  0
   12.2423  102.2497   55.8836 C   0  0  0  0  0  0  0  0  0  0  0  0
   13.1535  102.3060   54.9048 N   0  0  0  0  0  0  0  0  0  0  0  0
   13.8726  101.1751   54.9570 C   0  0  0  0  0  0  0  0  0  0  0  0
   14.9267  100.6992   54.2042 C   0  0  0  0  0  0  0  0  0  0  0  0
   15.4748   99.4554   54.5118 C   0  0  0  0  0  0  0  0  0  0  0  0
   15.0010   98.6769   55.5466 C   0  0  0  0  0  0  0  0  0  0  0  0
   13.9476   99.1573   56.2954 C   0  0  0  0  0  0  0  0  0  0  0  0
   13.3916  100.3993   55.9972 C   0  0  0  0  0  0  0  0  0  0  0  0
   11.5001   99.6458   58.4337 N   0  0  0  0  0  0  0  0  0  0  0  0
   11.6628   97.1411   59.9262 C   0  0  0  0  0  0  0  0  0  0  0  0
   11.6813   95.9670   60.6728 C   0  0  0  0  0  0  0  0  0  0  0  0
   13.3151   94.6910   62.5592 N   0  0  0  0  0  0  0  0  0  0  0  0
   14.3676   93.8836   62.7684 C   0  0  0  0  0  0  0  0  0  0  0  0
   15.7308   94.1151   62.7813 C   0  0  0  0  0  0  0  0  0  0  0  0
   16.5930   93.0739   63.0295 C   0  0  0  0  0  0  0  0  0  0  0  0
   16.0962   91.8123   63.2625 C   0  0  0  0  0  0  0  0  0  0  0  0
   14.7185   91.5901   63.2471 C   0  0  0  0  0  0  0  0  0  0  0  0
   13.8604   92.6314   62.9992 C   0  0  0  0  0  0  0  0  0  0  0  0
  1  2  1  0
  2  3  1  0
  3  4  1  0
  4  5  1  0
  5  6  2  0
  6  7  1  0
  7  8  2  0
  8  9  1  0
  9 10  2  0
 10 11  1  0
 11 12  1  0
 12 13  1  0
 13 14  2  0
 14 15  1  0
 15 16  1  0
 16 17  2  0
 17 18  1  0
 18 19  2  0
 19 20  1  0
 20 21  2  0
 12 22  2  0
  8 23  1  0
 23 24  2  0
  3 25  2  0
 25 26  1  0
 26 27  2  0
 27 28  1  0
 28 29  2  0
 29 30  1  0
 30 31  2  0
 31  2  1  0
 24  5  1  0
 31 26  1  0
 22  9  1  0
 21 13  1  0
 21 16  1  0
M  END
$$$$
