
     RDKit          3D

 23 24  0  0  0  0  0  0  0  0999 V2000
   15.3664   94.7331   63.1820 C   0  0  0  0  0  0  0  0  0  0  0  0
   14.2868   95.6542   63.1177 O   0  0  0  0  0  0  0  0  0  0  0  0
   12.9851   95.1826   63.0273 C   0  0  0  0  0  0  0  0  0  0  0  0
   12.6136   94.0141   63.6959 C   0  0  0  0  0  0  0  0  0  0  0  0
   11.3224   93.5264   63.6192 C   0  0  0  0  0  0  0  0  0  0  0  0
   10.3841   94.1886   62.8807 C   0  0  0  0  0  0  0  0  0  0  0  0
    8.7292   93.6083   62.7525 Cl  0  0  0  0  0  0  0  0  0  0  0  0
   10.7512   95.3430   62.2200 C   0  0  0  0  0  0  0  0  0  0  0  0
   12.0380   95.8511   62.2816 C   0  0  0  0  0  0  0  0  0  0  0  0
   12.4005   97.0974   61.5593 C   0  0  0  0  0  0  0  0  0  0  0  0
   11.7170   97.1494   60.2887 N   0  0  0  0  0  0  0  0  0  0  0  0
   11.6929   98.2893   59.4629 C   0  0  0  0  0  0  0  0  0  0  0  0
   11.3720   99.5406   59.9614 C   0  0  0  0  0  0  0  0  0  0  0  0
   11.3582  100.6269   59.1300 C   0  0  0  0  0  0  0  0  0  0  0  0
   11.6541  100.5561   57.7751 C   0  0  0  0  0  0  0  0  0  0  0  0
   11.9763   99.3034   57.2717 C   0  0  0  0  0  0  0  0  0  0  0  0
   12.3093   99.1312   55.8343 C   0  0  0  0  0  0  0  0  0  0  0  0
   13.6785   99.4067   55.5211 N   0  0  0  0  0  0  0  0  0  0  0  0
   14.7008   98.7046   56.2873 C   0  0  0  0  0  0  0  0  0  0  0  0
   14.0042  100.3224   54.5109 C   0  0  0  0  0  0  0  0  0  0  0  0
   15.4343  100.5391   54.1401 C   0  0  0  0  0  0  0  0  0  0  0  0
   13.1176  100.9718   53.9033 O   0  0  0  0  0  0  0  0  0  0  0  0
   11.9876   98.2151   58.1168 C   0  0  0  0  0  0  0  0  0  0  0  0
  1  2  1  0
  2  3  1  0
  3  4  2  0
  4  5  1  0
  5  6  2  0
  6  7  1  0
  6  8  1  0
  8  9  2  0
  9 10  1  0
 10 11  1  0
 11 12  1  0
 12 13  2  0
 13 14  1  0
 14 15  2  0
 15 16  1  0
 16 17  1  0
 17 18  1  0
 18 19  1  0
 18 20  1  0
 20 21  1  0
 20 22  2  0
 16 23  2  0
  9  3  1  0
 23 12  1  0
M  END
$$$$
