
     RDKit          3D

 20 21  0  0  0  0  0  0  0  0999 V2000
   15.4767   91.4073   64.3239 C   0  0  0  0  0  0  0  0  0  0  0  0
   14.1568   92.0899   64.0070 C   0  0  0  0  0  0  0  0  0  0  0  0
   14.4230   93.3992   63.3318 C   0  0  0  0  0  0  0  0  0  0  0  0
   13.3345   93.7518   62.3504 C   0  0  0  0  0  0  0  0  0  0  0  0
   12.6064   95.0123   62.7439 C   0  0  0  0  0  0  0  0  0  0  0  0
   12.2736   95.8447   61.6372 N   0  0  0  0  0  0  0  0  0  0  0  0
   11.6551   97.0838   61.9730 C   0  0  0  0  0  0  0  0  0  0  0  0
   11.3195   97.8097   60.7097 C   0  0  0  0  0  0  0  0  0  0  0  0
   10.0603   97.9689   60.1708 C   0  0  0  0  0  0  0  0  0  0  0  0
   10.1933   98.6542   59.0773 O   0  0  0  0  0  0  0  0  0  0  0  0
   11.4438   98.9678   58.8399 C   0  0  0  0  0  0  0  0  0  0  0  0
   11.9792   99.7320   57.7062 C   0  0  0  0  0  0  0  0  0  0  0  0
   11.1509  100.4404   56.8631 C   0  0  0  0  0  0  0  0  0  0  0  0
   11.6500  101.1613   55.7954 C   0  0  0  0  0  0  0  0  0  0  0  0
   13.0015  101.2013   55.5291 C   0  0  0  0  0  0  0  0  0  0  0  0
   13.8418  100.4974   56.3640 C   0  0  0  0  0  0  0  0  0  0  0  0
   15.2127  100.4861   56.1651 O   0  0  0  0  0  0  0  0  0  0  0  0
   15.7467  101.1771   55.0766 C   0  0  0  0  0  0  0  0  0  0  0  0
   13.3288   99.7720   57.4402 C   0  0  0  0  0  0  0  0  0  0  0  0
   12.1490   98.4364   59.8661 N   0  0  0  0  0  0  0  0  0  0  0  0
  1  2  1  0
  2  3  1  0
  3  4  1  0
  4  5  1  0
  5  6  1  0
  6  7  1  0
  7  8  1  0
  8  9  2  0
  9 10  1  0
 10 11  1  0
 11 12  1  0
 12 13  2  0
 13 14  1  0
 14 15  2  0
 15 16  1  0
 16 17  1  0
 17 18  1  0
 16 19  2  0
 11 20  2  0
 20  8  1  0
 19 12  1  0
M  END
$$$$
