
     RDKit          3D

 31 34  0  0  0  0  0  0  0  0999 V2000
   10.7033   89.0595   65.8665 N   0  0  0  0  0  0  0  0  0  0  0  0
   11.2374   90.3219   65.4426 C   0  0  0  0  0  0  0  0  0  0  0  0
   10.4309   91.4228   65.2693 C   0  0  0  0  0  0  0  0  0  0  0  0
   10.9617   92.6340   64.8601 C   0  0  0  0  0  0  0  0  0  0  0  0
   12.3328   92.7603   64.6169 C   0  0  0  0  0  0  0  0  0  0  0  0
   12.8207   94.0751   64.2007 C   0  0  0  0  0  0  0  0  0  0  0  0
   12.5867   94.4526   62.8619 N   0  0  0  0  0  0  0  0  0  0  0  0
   13.0039   95.6770   62.2897 C   0  0  0  0  0  0  0  0  0  0  0  0
   14.1200   96.1552   62.5247 O   0  0  0  0  0  0  0  0  0  0  0  0
   12.0839   96.4126   61.3827 C   0  0  0  0  0  0  0  0  0  0  0  0
   10.7388   96.1712   61.2542 C   0  0  0  0  0  0  0  0  0  0  0  0
   10.2843   97.0886   60.4243 N   0  0  0  0  0  0  0  0  0  0  0  0
   11.1993   97.9141   59.9896 N   0  0  0  0  0  0  0  0  0  0  0  0
   11.0781   99.0519   59.1572 C   0  0  0  0  0  0  0  0  0  0  0  0
   10.5004  100.2199   59.6848 C   0  0  0  0  0  0  0  0  0  0  0  0
   10.3647  101.3022   58.8754 C   0  0  0  0  0  0  0  0  0  0  0  0
   10.7602  101.3314   57.5571 C   0  0  0  0  0  0  0  0  0  0  0  0
   11.3334  100.1726   57.0331 C   0  0  0  0  0  0  0  0  0  0  0  0
   11.7366  100.1371   55.7148 C   0  0  0  0  0  0  0  0  0  0  0  0
   11.5820  101.1828   55.0083 O   0  0  0  0  0  0  0  0  0  0  0  0
   12.2770   99.0176   55.2097 N   0  0  0  0  0  0  0  0  0  0  0  0
   12.4339   97.9207   55.9706 C   0  0  0  0  0  0  0  0  0  0  0  0
   12.0559   97.8860   57.2885 C   0  0  0  0  0  0  0  0  0  0  0  0
   11.4917   99.0419   57.8269 C   0  0  0  0  0  0  0  0  0  0  0  0
   12.3424   97.5102   60.5716 C   0  0  0  0  0  0  0  0  0  0  0  0
   13.7028   98.0682   60.4015 C   0  0  0  0  0  0  0  0  0  0  0  0
   13.7571   99.4365   60.5242 F   0  0  0  0  0  0  0  0  0  0  0  0
   14.4900   97.6488   61.5097 F   0  0  0  0  0  0  0  0  0  0  0  0
   14.4176   97.5492   59.3620 F   0  0  0  0  0  0  0  0  0  0  0  0
   13.1318   91.6623   64.7901 C   0  0  0  0  0  0  0  0  0  0  0  0
   12.5947   90.4716   65.1941 C   0  0  0  0  0  0  0  0  0  0  0  0
  1  2  1  0
  2  3  2  0
  3  4  1  0
  4  5  2  0
  5  6  1  0
  6  7  1  0
  7  8  1  0
  8  9  2  0
  8 10  1  0
 10 11  1  0
 11 12  2  0
 12 13  1  0
 13 14  1  0
 14 15  2  0
 15 16  1  0
 16 17  2  0
 17 18  1  0
 18 19  1  0
 19 20  2  0
 19 21  1  0
 21 22  1  0
 22 23  2  0
 23 24  1  0
 13 25  1  0
 25 26  1  0
 26 27  1  0
 26 28  1  0
 26 29  1  0
  5 30  1  0
 30 31  2  0
 31  2  1  0
 25 10  2  0
 24 14  1  0
 24 18  2  0
M  END
$$$$
