
     RDKit          3D

 29 32  0  0  0  0  0  0  0  0999 V2000
   12.8648   95.8716   59.5685 C   0  0  0  0  0  0  0  0  0  0  0  0
   12.5173   97.2671   60.0268 C   0  0  0  0  0  0  0  0  0  0  0  0
   12.0516   98.1674   59.0815 C   0  0  0  0  0  0  0  0  0  0  0  0
   11.7270   99.4694   59.3856 C   0  0  0  0  0  0  0  0  0  0  0  0
   11.2279  100.4348   58.3730 C   0  0  0  0  0  0  0  0  0  0  0  0
   12.0070  100.4285   57.1494 N   0  0  0  0  0  0  0  0  0  0  0  0
   13.3205  100.5634   57.2099 N   0  0  0  0  0  0  0  0  0  0  0  0
   14.0893  100.5604   56.0805 C   0  0  0  0  0  0  0  0  0  0  0  0
   13.5574  100.4191   54.8222 C   0  0  0  0  0  0  0  0  0  0  0  0
   14.3461  100.4093   53.6628 N   0  0  0  0  0  0  0  0  0  0  0  0
   13.9021  100.8063   52.3628 C   0  0  0  0  0  0  0  0  0  0  0  0
   14.9508  101.5799   51.5865 C   0  0  0  0  0  0  0  0  0  0  0  0
   16.2842  100.8704   51.5850 C   0  0  0  0  0  0  0  0  0  0  0  0
   16.2202   99.5778   52.3728 C   0  0  0  0  0  0  0  0  0  0  0  0
   17.5715   99.0737   52.4987 N   0  0  0  0  0  0  0  0  0  0  0  0
   15.7369   99.9597   53.7558 C   0  0  0  0  0  0  0  0  0  0  0  0
   12.1777  100.2771   54.7520 C   0  0  0  0  0  0  0  0  0  0  0  0
   11.4611  100.2887   55.9294 C   0  0  0  0  0  0  0  0  0  0  0  0
   10.2065  100.1598   55.8695 O   0  0  0  0  0  0  0  0  0  0  0  0
   11.8930   99.8373   60.7066 C   0  0  0  0  0  0  0  0  0  0  0  0
   12.3517   98.9662   61.6628 C   0  0  0  0  0  0  0  0  0  0  0  0
   12.6722   97.6616   61.3375 C   0  0  0  0  0  0  0  0  0  0  0  0
   13.1344   96.7536   62.2494 O   0  0  0  0  0  0  0  0  0  0  0  0
   12.3460   96.0381   63.1272 C   0  0  0  0  0  0  0  0  0  0  0  0
   10.9754   96.0050   63.0348 C   0  0  0  0  0  0  0  0  0  0  0  0
   10.1998   95.2756   63.9349 C   0  0  0  0  0  0  0  0  0  0  0  0
   10.8197   94.5685   64.9450 C   0  0  0  0  0  0  0  0  0  0  0  0
   12.2020   94.6133   65.0239 C   0  0  0  0  0  0  0  0  0  0  0  0
   12.9153   95.3258   64.1400 N   0  0  0  0  0  0  0  0  0  0  0  0
  1  2  1  0
  2  3  2  0
  3  4  1  0
  4  5  1  0
  5  6  1  0
  6  7  1  0
  7  8  2  0
  8  9  1  0
  9 10  1  0
 10 11  1  0
 11 12  1  0
 12 13  1  0
 13 14  1  0
 14 15  1  0
 14 16  1  0
  9 17  2  0
 17 18  1  0
 18 19  2  0
  4 20  2  0
 20 21  1  0
 21 22  2  0
 22 23  1  0
 23 24  1  0
 24 25  2  0
 25 26  1  0
 26 27  2  0
 27 28  1  0
 28 29  2  0
 22  2  1  0
 29 24  1  0
 18  6  1  0
 16 10  1  0
M  END
$$$$
