
     RDKit          3D

 21 22  0  0  0  0  0  0  0  0999 V2000
   12.7793   48.4348   19.6239 C   0  0  0  0  0  0  0  0  0  0  0  0
   13.8234   48.6588   18.5540 C   0  0  0  0  0  0  0  0  0  0  0  0
   15.2102   48.8053   19.1625 C   0  0  0  0  0  0  0  0  0  0  0  0
   16.1635   49.0740   18.0920 N   0  0  0  0  0  0  0  0  0  0  0  0
   16.2305   50.4095   17.5893 C   0  0  0  0  0  0  0  0  0  0  0  0
   15.4600   51.2973   18.0661 O   0  0  0  0  0  0  0  0  0  0  0  0
   17.1578   50.7000   16.5711 N   0  0  0  0  0  0  0  0  0  0  0  0
   17.9565   49.6182   16.0415 C   0  0  0  0  0  0  0  0  0  0  0  0
   17.3064   52.0165   16.0674 C   0  0  0  0  0  0  0  0  0  0  0  0
   16.4533   52.3085   14.8911 C   0  0  0  0  0  0  0  0  0  0  0  0
   15.6800   51.4391   14.4657 O   0  0  0  0  0  0  0  0  0  0  0  0
   16.4546   53.5457   14.1936 N   0  0  0  0  0  0  0  0  0  0  0  0
   15.5694   53.8929   13.1461 C   0  0  0  0  0  0  0  0  0  0  0  0
   14.5082   54.8693   13.4144 C   0  0  0  0  0  0  0  0  0  0  0  0
   14.8544   56.3142   13.2378 C   0  0  0  0  0  0  0  0  0  0  0  0
   16.2959   56.5843   12.9392 C   0  0  0  0  0  0  0  0  0  0  0  0
   16.7214   55.6487   11.8499 C   0  0  0  0  0  0  0  0  0  0  0  0
   17.3962   55.7775   10.7441 O   0  0  0  0  0  0  0  0  0  0  0  0
   17.5097   54.6370   10.1099 C   0  0  0  0  0  0  0  0  0  0  0  0
   16.8609   53.6739   10.8494 C   0  0  0  0  0  0  0  0  0  0  0  0
   16.3610   54.3340   11.9598 C   0  0  0  0  0  0  0  0  0  0  0  0
  1  2  1  0
  2  3  1  0
  3  4  1  0
  4  5  1  0
  5  6  2  0
  5  7  1  0
  7  8  1  0
  7  9  1  0
  9 10  1  0
 10 11  2  0
 10 12  1  0
 12 13  1  0
 13 14  1  0
 14 15  1  0
 15 16  1  0
 16 17  1  0
 17 18  1  0
 18 19  1  0
 19 20  2  0
 20 21  1  0
 21 13  1  0
 21 17  2  0
M  END
$$$$
