
     RDKit          3D

 21 23  0  0  0  0  0  0  0  0999 V2000
   38.0012   83.7490   52.5128 O   0  0  0  0  0  0  0  0  0  0  0  0
   37.7542   82.5196   52.3895 C   0  0  0  0  0  0  0  0  0  0  0  0
   38.7003   81.5054   52.3598 C   0  0  0  0  0  0  0  0  0  0  0  0
   37.9908   80.3528   52.2143 C   0  0  0  0  0  0  0  0  0  0  0  0
   36.6997   80.6727   52.1616 N   0  0  0  0  0  0  0  0  0  0  0  0
   36.5291   81.9783   52.2654 N   0  0  0  0  0  0  0  0  0  0  0  0
   35.2661   82.7220   52.2512 C   0  0  0  0  0  0  0  0  0  0  0  0
   34.7769   82.9460   50.8577 C   0  0  0  0  0  0  0  0  0  0  0  0
   33.6337   81.6845   50.3112 S   0  0  0  0  0  0  0  0  0  0  0  0
   31.9951   81.8904   50.9798 C   0  0  0  0  0  0  0  0  0  0  0  0
   30.8972   81.2474   50.4376 C   0  0  0  0  0  0  0  0  0  0  0  0
   29.6278   81.3819   50.9487 C   0  0  0  0  0  0  0  0  0  0  0  0
   29.4103   82.1781   52.0383 C   0  0  0  0  0  0  0  0  0  0  0  0
   28.1406   82.2981   52.5306 F   0  0  0  0  0  0  0  0  0  0  0  0
   30.4632   82.8340   52.6093 C   0  0  0  0  0  0  0  0  0  0  0  0
   30.2242   83.6201   53.6909 F   0  0  0  0  0  0  0  0  0  0  0  0
   31.7345   82.6845   52.0787 C   0  0  0  0  0  0  0  0  0  0  0  0
   38.6273   79.0006   52.1353 C   0  0  0  0  0  0  0  0  0  0  0  0
   40.1117   79.0755   52.2240 C   0  0  0  0  0  0  0  0  0  0  0  0
   40.7231   80.3585   51.7686 C   0  0  0  0  0  0  0  0  0  0  0  0
   40.1762   81.5732   52.4564 C   0  0  0  0  0  0  0  0  0  0  0  0
  1  2  2  0
  2  3  1  0
  3  4  2  0
  4  5  1  0
  5  6  1  0
  6  7  1  0
  7  8  1  0
  8  9  1  0
  9 10  1  0
 10 11  2  0
 11 12  1  0
 12 13  2  0
 13 14  1  0
 13 15  1  0
 15 16  1  0
 15 17  2  0
  4 18  1  0
 18 19  1  0
 19 20  1  0
 20 21  1  0
  6  2  1  0
 17 10  1  0
 21  3  1  0
M  END
$$$$
