
     RDKit          3D

 33 38  0  0  0  0  0  0  0  0999 V2000
  -10.9864   65.1168   30.1445 C   0  0  0  0  0  0  0  0  0  0  0  0
  -11.9881   64.2293   30.8296 C   0  0  0  0  0  0  0  0  0  0  0  0
  -11.8878   62.8969   30.2305 N   0  0  0  0  0  0  0  0  0  0  0  0
  -12.3574   62.9387   28.8686 C   0  0  0  0  0  0  0  0  0  0  0  0
  -13.8972   62.8564   28.9519 C   0  0  0  0  0  0  0  0  0  0  0  0
  -10.5750   62.3737   30.4106 C   0  0  0  0  0  0  0  0  0  0  0  0
  -10.6744   61.1347   31.4382 C   0  0  0  0  0  0  0  0  0  0  0  0
   -9.1970   60.8343   31.6846 N   0  0  0  0  0  0  0  0  0  0  0  0
   -8.5047   61.9855   31.7314 C   0  0  0  0  0  0  0  0  0  0  0  0
   -9.0212   63.0126   32.1532 O   0  0  0  0  0  0  0  0  0  0  0  0
   -7.1832   61.9784   31.2903 C   0  0  0  0  0  0  0  0  0  0  0  0
   -6.4263   63.1152   31.3064 C   0  0  0  0  0  0  0  0  0  0  0  0
   -5.1267   63.0757   30.8557 C   0  0  0  0  0  0  0  0  0  0  0  0
   -4.5676   61.9119   30.3863 C   0  0  0  0  0  0  0  0  0  0  0  0
   -5.3426   60.7845   30.3788 C   0  0  0  0  0  0  0  0  0  0  0  0
   -6.6559   60.7923   30.8268 C   0  0  0  0  0  0  0  0  0  0  0  0
   -7.3910   59.6541   30.8119 C   0  0  0  0  0  0  0  0  0  0  0  0
   -6.8643   58.4876   30.3371 C   0  0  0  0  0  0  0  0  0  0  0  0
   -7.6313   57.3531   30.3528 C   0  0  0  0  0  0  0  0  0  0  0  0
   -8.9173   57.3343   30.8459 C   0  0  0  0  0  0  0  0  0  0  0  0
   -9.7872   56.4031   31.0179 O   0  0  0  0  0  0  0  0  0  0  0  0
  -10.8666   56.8711   31.6194 C   0  0  0  0  0  0  0  0  0  0  0  0
  -12.0008   56.1810   32.0204 C   0  0  0  0  0  0  0  0  0  0  0  0
  -12.1197   54.7282   31.7154 C   0  0  0  0  0  0  0  0  0  0  0  0
  -13.0210   56.8115   32.6990 C   0  0  0  0  0  0  0  0  0  0  0  0
  -12.8369   58.1544   32.9530 C   0  0  0  0  0  0  0  0  0  0  0  0
  -11.7140   58.8304   32.5431 C   0  0  0  0  0  0  0  0  0  0  0  0
  -10.7245   58.2123   31.8566 C   0  0  0  0  0  0  0  0  0  0  0  0
   -9.4712   58.5304   31.3266 C   0  0  0  0  0  0  0  0  0  0  0  0
   -8.7426   59.6836   31.2893 C   0  0  0  0  0  0  0  0  0  0  0  0
   -3.2664   62.1770   30.0073 O   0  0  0  0  0  0  0  0  0  0  0  0
   -2.8892   63.3549   30.7172 C   0  0  0  0  0  0  0  0  0  0  0  0
   -4.1344   64.0501   30.7532 O   0  0  0  0  0  0  0  0  0  0  0  0
  1  2  1  0
  2  3  1  0
  3  4  1  0
  4  5  1  0
  3  6  1  0
  6  7  1  0
  7  8  1  0
  8  9  1  0
  9 10  2  0
  9 11  1  0
 11 12  2  0
 12 13  1  0
 13 14  2  0
 14 15  1  0
 15 16  2  0
 16 17  1  0
 17 18  2  0
 18 19  1  0
 19 20  2  0
 20 21  1  0
 21 22  1  0
 22 23  2  0
 23 24  1  0
 23 25  1  0
 25 26  2  0
 26 27  1  0
 27 28  2  0
 28 29  1  0
 29 30  2  0
 14 31  1  0
 31 32  1  0
 32 33  1  0
 30  8  1  0
 16 11  1  0
 30 17  1  0
 33 13  1  0
 29 20  1  0
 28 22  1  0
M  END
$$$$
