
     RDKit          3D

 17 17  0  0  0  0  0  0  0  0999 V2000
   15.1709   47.1844   19.4064 C   0  0  0  0  0  0  0  0  0  0  0  0
   16.1741   47.8191   18.4051 C   0  0  0  0  0  0  0  0  0  0  0  0
   17.3540   48.1852   19.2250 C   0  0  0  0  0  0  0  0  0  0  0  0
   15.4233   48.8762   17.7039 C   0  0  0  0  0  0  0  0  0  0  0  0
   14.3866   48.1330   16.8188 C   0  0  0  0  0  0  0  0  0  0  0  0
   14.6052   49.5736   18.7359 C   0  0  0  0  0  0  0  0  0  0  0  0
   13.9566   50.1004   19.5342 N   0  0  0  0  0  0  0  0  0  0  0  0
   16.1205   49.7956   16.8813 N   0  0  0  0  0  0  0  0  0  0  0  0
   15.5545   50.8239   16.1056 C   0  0  0  0  0  0  0  0  0  0  0  0
   14.3801   51.1689   16.2626 O   0  0  0  0  0  0  0  0  0  0  0  0
   16.3187   51.5597   15.0550 C   0  0  0  0  0  0  0  0  0  0  0  0
   15.3038   52.8275   14.2656 S   0  0  0  0  0  0  0  0  0  0  0  0
   16.3316   53.7615   13.1459 C   0  0  0  0  0  0  0  0  0  0  0  0
   16.5780   55.0857   13.1431 N   0  0  0  0  0  0  0  0  0  0  0  0
   17.4035   55.4142   12.1418 C   0  0  0  0  0  0  0  0  0  0  0  0
   17.6859   54.2696   11.4957 N   0  0  0  0  0  0  0  0  0  0  0  0
   17.0380   53.2705   12.1026 N   0  0  0  0  0  0  0  0  0  0  0  0
  1  2  1  0
  2  3  1  0
  2  4  1  0
  4  5  1  0
  4  6  1  0
  6  7  3  0
  4  8  1  0
  8  9  1  0
  9 10  2  0
  9 11  1  0
 11 12  1  0
 12 13  1  0
 13 14  1  0
 14 15  2  0
 15 16  1  0
 16 17  1  0
 17 13  2  0
M  END
$$$$
