
     RDKit          3D

 18 19  0  0  0  0  0  0  0  0999 V2000
   39.5693   79.9247   53.4969 C   0  0  0  0  0  0  0  0  0  0  0  0
   38.5164   80.9820   53.5402 C   0  0  0  0  0  0  0  0  0  0  0  0
   37.4020   80.6895   52.7191 O   0  0  0  0  0  0  0  0  0  0  0  0
   37.2221   81.2935   51.4817 C   0  0  0  0  0  0  0  0  0  0  0  0
   38.2417   81.3892   50.7516 O   0  0  0  0  0  0  0  0  0  0  0  0
   35.9419   81.7811   51.0606 N   0  0  0  0  0  0  0  0  0  0  0  0
   35.5709   82.1975   49.7536 C   0  0  0  0  0  0  0  0  0  0  0  0
   36.3140   82.3845   48.7691 O   0  0  0  0  0  0  0  0  0  0  0  0
   34.0849   82.3850   49.7409 C   0  0  0  0  0  0  0  0  0  0  0  0
   33.8354   82.8223   51.1718 C   0  0  0  0  0  0  0  0  0  0  0  0
   32.4567   82.5922   51.5864 C   0  0  0  0  0  0  0  0  0  0  0  0
   32.1419   82.3148   52.8922 C   0  0  0  0  0  0  0  0  0  0  0  0
   30.8121   82.0978   53.2655 C   0  0  0  0  0  0  0  0  0  0  0  0
   29.8064   82.1625   52.3157 C   0  0  0  0  0  0  0  0  0  0  0  0
   30.1242   82.4416   51.0026 C   0  0  0  0  0  0  0  0  0  0  0  0
   31.4550   82.6554   50.6471 C   0  0  0  0  0  0  0  0  0  0  0  0
   34.8065   81.9314   51.9035 C   0  0  0  0  0  0  0  0  0  0  0  0
   34.6740   81.4054   53.0377 O   0  0  0  0  0  0  0  0  0  0  0  0
  1  2  1  0
  2  3  1  0
  3  4  1  0
  4  5  2  0
  4  6  1  0
  6  7  1  0
  7  8  2  0
  7  9  1  0
  9 10  1  0
 10 11  1  0
 11 12  2  0
 12 13  1  0
 13 14  2  0
 14 15  1  0
 15 16  2  0
 10 17  1  0
 17 18  2  0
 17  6  1  0
 16 11  1  0
M  END
$$$$
