
     RDKit          3D

 32 36  0  0  0  0  0  0  0  0999 V2000
   15.9980   93.2799   62.6462 C   0  0  0  0  0  0  0  0  0  0  0  0
   14.5468   93.4448   63.0269 C   0  0  0  0  0  0  0  0  0  0  0  0
   13.6124   93.1343   61.8762 C   0  0  0  0  0  0  0  0  0  0  0  0
   12.4247   94.0831   61.8661 C   0  0  0  0  0  0  0  0  0  0  0  0
   12.8413   95.5076   61.6689 C   0  0  0  0  0  0  0  0  0  0  0  0
   12.9006   95.8235   60.2095 C   0  0  0  0  0  0  0  0  0  0  0  0
   13.7732   95.2065   59.5696 O   0  0  0  0  0  0  0  0  0  0  0  0
   12.0338   96.7438   59.6335 N   0  0  0  0  0  0  0  0  0  0  0  0
   12.1607   97.1192   58.2583 C   0  0  0  0  0  0  0  0  0  0  0  0
   12.3831   98.5639   58.0500 C   0  0  0  0  0  0  0  0  0  0  0  0
   13.2336   98.7404   56.9687 C   0  0  0  0  0  0  0  0  0  0  0  0
   13.5930  100.0090   56.5754 C   0  0  0  0  0  0  0  0  0  0  0  0
   13.0857  101.0769   57.2828 C   0  0  0  0  0  0  0  0  0  0  0  0
   12.2535  100.8793   58.3387 N   0  0  0  0  0  0  0  0  0  0  0  0
   11.8904   99.6573   58.7390 C   0  0  0  0  0  0  0  0  0  0  0  0
   11.0144   99.7036   59.8637 N   0  0  0  0  0  0  0  0  0  0  0  0
   10.6118   98.5628   60.6501 C   0  0  0  0  0  0  0  0  0  0  0  0
    9.6593   98.8656   61.6110 C   0  0  0  0  0  0  0  0  0  0  0  0
    9.1590   97.8885   62.4426 C   0  0  0  0  0  0  0  0  0  0  0  0
    9.5928   96.5789   62.3407 C   0  0  0  0  0  0  0  0  0  0  0  0
    9.0575   95.5610   63.2297 C   0  0  0  0  0  0  0  0  0  0  0  0
    9.4529   95.5104   64.5474 C   0  0  0  0  0  0  0  0  0  0  0  0
    8.9779   94.5748   65.4279 C   0  0  0  0  0  0  0  0  0  0  0  0
    8.0671   93.6339   65.0054 C   0  0  0  0  0  0  0  0  0  0  0  0
    7.6487   93.6580   63.6841 C   0  0  0  0  0  0  0  0  0  0  0  0
    6.7018   92.6726   63.2549 C   0  0  0  0  0  0  0  0  0  0  0  0
    5.9301   91.8725   62.8845 N   0  0  0  0  0  0  0  0  0  0  0  0
    8.1447   94.6176   62.8074 C   0  0  0  0  0  0  0  0  0  0  0  0
   10.5374   96.2953   61.3819 C   0  0  0  0  0  0  0  0  0  0  0  0
   11.0348   97.2737   60.5558 C   0  0  0  0  0  0  0  0  0  0  0  0
   14.1316   95.7782   62.3581 C   0  0  0  0  0  0  0  0  0  0  0  0
   14.2667   94.8499   63.5470 C   0  0  0  0  0  0  0  0  0  0  0  0
  1  2  1  0
  2  3  1  0
  3  4  1  0
  4  5  1  0
  5  6  1  0
  6  7  2  0
  6  8  1  0
  8  9  1  0
  9 10  1  0
 10 11  2  0
 11 12  1  0
 12 13  2  0
 13 14  1  0
 14 15  2  0
 15 16  1  0
 16 17  1  0
 17 18  2  0
 18 19  1  0
 19 20  2  0
 20 21  1  0
 21 22  2  0
 22 23  1  0
 23 24  2  0
 24 25  1  0
 25 26  1  0
 26 27  3  0
 25 28  2  0
 20 29  1  0
 29 30  2  0
  5 31  1  0
 31 32  1  0
 32  2  1  0
 30  8  1  0
 15 10  1  0
 30 17  1  0
 28 21  1  0
M  END
$$$$
