
     RDKit          3D

 26 28  0  0  0  0  0  0  0  0999 V2000
   13.2671   95.7022   61.6041 O   0  0  0  0  0  0  0  0  0  0  0  0
   12.2034   96.3479   61.4364 C   0  0  0  0  0  0  0  0  0  0  0  0
   11.1035   96.0556   62.2816 N   0  0  0  0  0  0  0  0  0  0  0  0
   11.3006   95.1500   63.3558 C   0  0  0  0  0  0  0  0  0  0  0  0
   10.2974   94.2531   63.6805 C   0  0  0  0  0  0  0  0  0  0  0  0
   10.4294   93.3517   64.7099 C   0  0  0  0  0  0  0  0  0  0  0  0
   11.5933   93.3318   65.4487 C   0  0  0  0  0  0  0  0  0  0  0  0
   12.6141   94.2087   65.1559 C   0  0  0  0  0  0  0  0  0  0  0  0
   12.4460   95.0984   64.1164 C   0  0  0  0  0  0  0  0  0  0  0  0
   12.1164   97.3723   60.3917 C   0  0  0  0  0  0  0  0  0  0  0  0
   11.1573   98.3499   60.3855 C   0  0  0  0  0  0  0  0  0  0  0  0
   11.1059   99.3092   59.3734 C   0  0  0  0  0  0  0  0  0  0  0  0
   12.0165   99.3126   58.3399 C   0  0  0  0  0  0  0  0  0  0  0  0
   11.9678  100.2860   57.3088 N   0  0  0  0  0  0  0  0  0  0  0  0
   12.8870  100.2303   56.1867 C   0  0  0  0  0  0  0  0  0  0  0  0
   12.1857   99.6963   54.9415 C   0  0  0  0  0  0  0  0  0  0  0  0
   11.9542   98.3593   55.1532 O   0  0  0  0  0  0  0  0  0  0  0  0
   13.0481  100.0267   53.7709 C   0  0  0  0  0  0  0  0  0  0  0  0
   13.8816  101.1759   53.9117 N   0  0  0  0  0  0  0  0  0  0  0  0
   15.1052  100.7635   54.5731 C   0  0  0  0  0  0  0  0  0  0  0  0
   16.2868  100.7739   53.6196 C   0  0  0  0  0  0  0  0  0  0  0  0
   15.9578  100.2275   52.3878 O   0  0  0  0  0  0  0  0  0  0  0  0
   15.0025  100.9651   51.7169 C   0  0  0  0  0  0  0  0  0  0  0  0
   14.2415  101.8302   52.6835 C   0  0  0  0  0  0  0  0  0  0  0  0
   12.9876   98.3134   58.3566 C   0  0  0  0  0  0  0  0  0  0  0  0
   13.0308   97.3679   59.3627 C   0  0  0  0  0  0  0  0  0  0  0  0
  1  2  2  0
  2  3  1  0
  3  4  1  0
  4  5  2  0
  5  6  1  0
  6  7  2  0
  7  8  1  0
  8  9  2  0
  2 10  1  0
 10 11  2  0
 11 12  1  0
 12 13  2  0
 13 14  1  0
 14 15  1  0
 15 16  1  0
 16 17  1  0
 16 18  1  0
 18 19  1  0
 19 20  1  0
 20 21  1  0
 21 22  1  0
 22 23  1  0
 23 24  1  0
 13 25  1  0
 25 26  2  0
  9  4  1  0
 26 10  1  0
 24 19  1  0
M  END
$$$$
