
     RDKit          3D

 32 35  0  0  0  0  0  0  0  0999 V2000
   13.8485   48.4480   20.7642 C   0  0  0  0  0  0  0  0  0  0  0  0
   14.5367   47.9802   19.5016 C   0  0  0  0  0  0  0  0  0  0  0  0
   13.6865   46.8378   18.9300 C   0  0  0  0  0  0  0  0  0  0  0  0
   14.6938   49.0407   18.5071 C   0  0  0  0  0  0  0  0  0  0  0  0
   15.9455   49.4025   18.0770 C   0  0  0  0  0  0  0  0  0  0  0  0
   16.1541   50.4186   17.1197 C   0  0  0  0  0  0  0  0  0  0  0  0
   15.1077   51.0848   16.5819 C   0  0  0  0  0  0  0  0  0  0  0  0
   15.2295   52.1204   15.6132 N   0  0  0  0  0  0  0  0  0  0  0  0
   16.3838   52.4139   14.9175 C   0  0  0  0  0  0  0  0  0  0  0  0
   17.4605   51.8089   15.1437 O   0  0  0  0  0  0  0  0  0  0  0  0
   16.4618   53.4352   13.8719 C   0  0  0  0  0  0  0  0  0  0  0  0
   17.1624   53.3090   12.7044 C   0  0  0  0  0  0  0  0  0  0  0  0
   17.8420   52.1879   12.4145 F   0  0  0  0  0  0  0  0  0  0  0  0
   17.2128   54.3241   11.7378 C   0  0  0  0  0  0  0  0  0  0  0  0
   17.9058   54.1838   10.5970 F   0  0  0  0  0  0  0  0  0  0  0  0
   16.5391   55.4788   11.9692 C   0  0  0  0  0  0  0  0  0  0  0  0
   16.5651   56.5070   11.0353 C   0  0  0  0  0  0  0  0  0  0  0  0
   17.2081   56.3882    9.9671 O   0  0  0  0  0  0  0  0  0  0  0  0
   15.8489   57.6489   11.3547 C   0  0  0  0  0  0  0  0  0  0  0  0
   15.1383   57.8024   12.5163 C   0  0  0  0  0  0  0  0  0  0  0  0
   14.3915   59.0170   12.8287 C   0  0  0  0  0  0  0  0  0  0  0  0
   14.3848   60.0566   11.8965 C   0  0  0  0  0  0  0  0  0  0  0  0
   13.7073   61.2392   12.1067 C   0  0  0  0  0  0  0  0  0  0  0  0
   12.9972   61.4395   13.2715 C   0  0  0  0  0  0  0  0  0  0  0  0
   12.9981   60.4198   14.1966 C   0  0  0  0  0  0  0  0  0  0  0  0
   13.6857   59.2162   13.9864 C   0  0  0  0  0  0  0  0  0  0  0  0
   15.1484   56.8022   13.3601 O   0  0  0  0  0  0  0  0  0  0  0  0
   15.8133   55.6720   13.1241 C   0  0  0  0  0  0  0  0  0  0  0  0
   15.7910   54.6526   14.0436 C   0  0  0  0  0  0  0  0  0  0  0  0
   15.0724   54.8359   15.1955 F   0  0  0  0  0  0  0  0  0  0  0  0
   13.8187   50.7217   17.0161 C   0  0  0  0  0  0  0  0  0  0  0  0
   13.6487   49.7407   17.9379 C   0  0  0  0  0  0  0  0  0  0  0  0
  1  2  1  0
  2  3  1  0
  2  4  1  0
  4  5  2  0
  5  6  1  0
  6  7  2  0
  7  8  1  0
  8  9  1  0
  9 10  2  0
  9 11  1  0
 11 12  2  0
 12 13  1  0
 12 14  1  0
 14 15  1  0
 14 16  2  0
 16 17  1  0
 17 18  2  0
 17 19  1  0
 19 20  2  0
 20 21  1  0
 21 22  2  0
 22 23  1  0
 23 24  2  0
 24 25  1  0
 25 26  2  0
 20 27  1  0
 27 28  1  0
 28 29  2  0
 29 30  1  0
  7 31  1  0
 31 32  2  0
 32  4  1  0
 29 11  1  0
 28 16  1  0
 26 21  1  0
M  END
$$$$
