
     RDKit          3D

 18 19  0  0  0  0  0  0  0  0999 V2000
   15.0981   95.1823   61.8943 C   0  0  0  0  0  0  0  0  0  0  0  0
   13.8266   94.6327   61.7066 O   0  0  0  0  0  0  0  0  0  0  0  0
   13.0496   94.2755   62.8089 C   0  0  0  0  0  0  0  0  0  0  0  0
   13.4775   93.2704   63.6434 C   0  0  0  0  0  0  0  0  0  0  0  0
   12.7100   92.9172   64.7324 C   0  0  0  0  0  0  0  0  0  0  0  0
   11.5070   93.5517   65.0145 C   0  0  0  0  0  0  0  0  0  0  0  0
   11.1179   94.5544   64.1489 C   0  0  0  0  0  0  0  0  0  0  0  0
   11.8649   94.9207   63.0620 C   0  0  0  0  0  0  0  0  0  0  0  0
   11.4385   95.9307   62.2201 O   0  0  0  0  0  0  0  0  0  0  0  0
   12.3920   96.6184   61.4521 C   0  0  0  0  0  0  0  0  0  0  0  0
   11.7263   96.9920   60.1306 C   0  0  0  0  0  0  0  0  0  0  0  0
   12.8828   98.1353   59.2901 S   0  0  0  0  0  0  0  0  0  0  0  0
   11.8584   99.4307   58.5713 C   0  0  0  0  0  0  0  0  0  0  0  0
   10.5504   99.6176   58.6411 N   0  0  0  0  0  0  0  0  0  0  0  0
   10.2410  100.7007   57.9578 N   0  0  0  0  0  0  0  0  0  0  0  0
   11.3571  101.1792   57.4687 N   0  0  0  0  0  0  0  0  0  0  0  0
   12.3735  100.4186   57.8289 N   0  0  0  0  0  0  0  0  0  0  0  0
   13.7849  100.6276   57.4768 C   0  0  0  0  0  0  0  0  0  0  0  0
  1  2  1  0
  2  3  1  0
  3  4  2  0
  4  5  1  0
  5  6  2  0
  6  7  1  0
  7  8  2  0
  8  9  1  0
  9 10  1  0
 10 11  1  0
 11 12  1  0
 12 13  1  0
 13 14  2  0
 14 15  1  0
 15 16  2  0
 16 17  1  0
 17 18  1  0
  8  3  1  0
 17 13  1  0
M  END
$$$$
