
     RDKit          3D

 19 21  0  0  0  0  0  0  0  0999 V2000
   11.5322   99.7519   60.4630 C   0  0  0  0  0  0  0  0  0  0  0  0
   11.4875  100.1126   59.0150 C   0  0  0  0  0  0  0  0  0  0  0  0
   10.9386  101.3565   58.7081 C   0  0  0  0  0  0  0  0  0  0  0  0
   10.8796  101.7247   57.3882 C   0  0  0  0  0  0  0  0  0  0  0  0
   11.3475  100.8901   56.4116 C   0  0  0  0  0  0  0  0  0  0  0  0
   11.8925   99.6579   56.7017 C   0  0  0  0  0  0  0  0  0  0  0  0
   12.3992   98.7585   55.6200 C   0  0  0  0  0  0  0  0  0  0  0  0
   13.3043   99.4639   54.7347 N   0  0  0  0  0  0  0  0  0  0  0  0
   13.1637   99.5575   53.3267 C   0  0  0  0  0  0  0  0  0  0  0  0
   12.2366   99.0479   52.6124 O   0  0  0  0  0  0  0  0  0  0  0  0
   14.2570  100.3420   52.7719 C   0  0  0  0  0  0  0  0  0  0  0  0
   14.5619  100.7115   51.4700 C   0  0  0  0  0  0  0  0  0  0  0  0
   15.6916  101.4736   51.2663 C   0  0  0  0  0  0  0  0  0  0  0  0
   16.4348  101.8114   52.3771 C   0  0  0  0  0  0  0  0  0  0  0  0
   16.1300  101.4481   53.6320 N   0  0  0  0  0  0  0  0  0  0  0  0
   15.0297  100.7027   53.8544 C   0  0  0  0  0  0  0  0  0  0  0  0
   14.4725  100.1768   55.0961 C   0  0  0  0  0  0  0  0  0  0  0  0
   14.9490  100.3322   56.2739 O   0  0  0  0  0  0  0  0  0  0  0  0
   11.9542   99.2829   58.0265 C   0  0  0  0  0  0  0  0  0  0  0  0
  1  2  1  0
  2  3  2  0
  3  4  1  0
  4  5  2  0
  5  6  1  0
  6  7  1  0
  7  8  1  0
  8  9  1  0
  9 10  2  0
  9 11  1  0
 11 12  2  0
 12 13  1  0
 13 14  2  0
 14 15  1  0
 15 16  2  0
 16 17  1  0
 17 18  2  0
  6 19  2  0
 19  2  1  0
 17  8  1  0
 16 11  1  0
M  END
$$$$
