
     RDKit          3D

 23 25  0  0  0  0  0  0  0  0999 V2000
   42.9834   82.0272   53.7679 C   0  0  0  0  0  0  0  0  0  0  0  0
   41.6776   81.7449   53.3950 O   0  0  0  0  0  0  0  0  0  0  0  0
   40.8537   82.8222   53.6240 C   0  0  0  0  0  0  0  0  0  0  0  0
   39.4432   82.5477   53.2514 C   0  0  0  0  0  0  0  0  0  0  0  0
   39.0973   82.4975   51.9047 C   0  0  0  0  0  0  0  0  0  0  0  0
   37.7975   82.2377   51.5284 C   0  0  0  0  0  0  0  0  0  0  0  0
   36.8331   82.0263   52.5283 C   0  0  0  0  0  0  0  0  0  0  0  0
   37.1624   82.0736   53.8690 C   0  0  0  0  0  0  0  0  0  0  0  0
   38.4762   82.3361   54.2194 C   0  0  0  0  0  0  0  0  0  0  0  0
   36.0915   81.8557   54.8578 C   0  0  0  0  0  0  0  0  0  0  0  0
   35.0320   80.8915   54.4545 C   0  0  0  0  0  0  0  0  0  0  0  0
   34.7761   80.7688   52.9929 C   0  0  0  0  0  0  0  0  0  0  0  0
   35.4727   81.7542   52.1834 N   0  0  0  0  0  0  0  0  0  0  0  0
   34.9064   82.4444   51.1039 C   0  0  0  0  0  0  0  0  0  0  0  0
   35.5759   83.0242   50.2201 O   0  0  0  0  0  0  0  0  0  0  0  0
   33.4649   82.5210   50.9607 C   0  0  0  0  0  0  0  0  0  0  0  0
   32.9122   82.2751   49.7391 C   0  0  0  0  0  0  0  0  0  0  0  0
   31.5444   82.3343   49.5998 C   0  0  0  0  0  0  0  0  0  0  0  0
   30.7645   82.6401   50.6944 C   0  0  0  0  0  0  0  0  0  0  0  0
   29.3748   82.7044   50.5712 O   0  0  0  0  0  0  0  0  0  0  0  0
   28.5424   83.2413   51.5642 C   0  0  0  0  0  0  0  0  0  0  0  0
   31.2987   82.8949   51.9470 C   0  0  0  0  0  0  0  0  0  0  0  0
   32.6774   82.8220   52.0307 C   0  0  0  0  0  0  0  0  0  0  0  0
  1  2  1  0
  2  3  1  0
  3  4  1  0
  4  5  2  0
  5  6  1  0
  6  7  2  0
  7  8  1  0
  8  9  2  0
  8 10  1  0
 10 11  1  0
 11 12  1  0
 12 13  1  0
 13 14  1  0
 14 15  2  0
 14 16  1  0
 16 17  2  0
 17 18  1  0
 18 19  2  0
 19 20  1  0
 20 21  1  0
 19 22  1  0
 22 23  2  0
  9  4  1  0
 23 16  1  0
 13  7  1  0
M  END
$$$$
