
     RDKit          3D

 24 25  0  0  0  0  0  0  0  0999 V2000
   -7.1477   61.7726   31.5700 O   0  0  0  0  0  0  0  0  0  0  0  0
   -6.9257   60.9935   30.5962 C   0  0  0  0  0  0  0  0  0  0  0  0
   -7.9217   59.9462   30.2948 C   0  0  0  0  0  0  0  0  0  0  0  0
   -7.7187   58.7315   31.2101 C   0  0  0  0  0  0  0  0  0  0  0  0
   -8.7504   57.8692   30.9830 O   0  0  0  0  0  0  0  0  0  0  0  0
   -8.6439   56.6068   31.4619 C   0  0  0  0  0  0  0  0  0  0  0  0
   -8.9913   56.3772   32.8948 C   0  0  0  0  0  0  0  0  0  0  0  0
  -10.2098   56.8712   33.2497 F   0  0  0  0  0  0  0  0  0  0  0  0
   -8.8973   55.0354   33.1830 F   0  0  0  0  0  0  0  0  0  0  0  0
   -7.9900   56.9741   33.6941 F   0  0  0  0  0  0  0  0  0  0  0  0
   -5.7336   61.1806   29.8598 N   0  0  0  0  0  0  0  0  0  0  0  0
   -4.8441   62.3130   30.0890 C   0  0  0  0  0  0  0  0  0  0  0  0
   -3.5065   61.7908   30.4606 C   0  0  0  0  0  0  0  0  0  0  0  0
   -2.9879   60.6830   29.8244 C   0  0  0  0  0  0  0  0  0  0  0  0
   -1.7424   60.1995   30.1766 C   0  0  0  0  0  0  0  0  0  0  0  0
   -1.0798   58.7783   29.3587 Cl  0  0  0  0  0  0  0  0  0  0  0  0
   -1.0326   60.8404   31.1688 C   0  0  0  0  0  0  0  0  0  0  0  0
   -1.5244   61.9622   31.8338 C   0  0  0  0  0  0  0  0  0  0  0  0
   -2.7873   62.4290   31.4564 C   0  0  0  0  0  0  0  0  0  0  0  0
   -3.3740   63.5308   32.0446 O   0  0  0  0  0  0  0  0  0  0  0  0
   -3.6079   64.7532   31.4331 C   0  0  0  0  0  0  0  0  0  0  0  0
   -4.2707   65.7982   32.3508 C   0  0  0  0  0  0  0  0  0  0  0  0
   -3.3989   66.8290   31.6656 C   0  0  0  0  0  0  0  0  0  0  0  0
   -2.3997   65.6981   31.4069 C   0  0  0  0  0  0  0  0  0  0  0  0
  1  2  2  0
  2  3  1  0
  3  4  1  0
  4  5  1  0
  5  6  1  0
  6  7  1  0
  7  8  1  0
  7  9  1  0
  7 10  1  0
  2 11  1  0
 11 12  1  0
 12 13  1  0
 13 14  2  0
 14 15  1  0
 15 16  1  0
 15 17  2  0
 17 18  1  0
 18 19  2  0
 19 20  1  0
 20 21  1  0
 21 22  1  0
 22 23  1  0
 23 24  1  0
 19 13  1  0
 24 21  1  0
M  END
$$$$
