
     RDKit          3D

 22 24  0  0  0  0  0  0  0  0999 V2000
   12.8624   97.6257   56.5845 C   0  0  0  0  0  0  0  0  0  0  0  0
   12.7352   98.5456   57.6697 N   0  0  0  0  0  0  0  0  0  0  0  0
   12.7426   99.9066   57.2341 C   0  0  0  0  0  0  0  0  0  0  0  0
   13.8347  100.0909   56.2422 C   0  0  0  0  0  0  0  0  0  0  0  0
   14.9068  100.9127   56.5337 C   0  0  0  0  0  0  0  0  0  0  0  0
   15.8907  101.0569   55.5971 C   0  0  0  0  0  0  0  0  0  0  0  0
   15.7986  100.4061   54.4265 N   0  0  0  0  0  0  0  0  0  0  0  0
   14.7664   99.6019   54.1201 C   0  0  0  0  0  0  0  0  0  0  0  0
   13.7668   99.4395   55.0404 C   0  0  0  0  0  0  0  0  0  0  0  0
   11.7202   98.2395   58.6239 C   0  0  0  0  0  0  0  0  0  0  0  0
   12.1510   97.3299   59.6894 C   0  0  0  0  0  0  0  0  0  0  0  0
   12.5690   97.8531   60.8939 C   0  0  0  0  0  0  0  0  0  0  0  0
   12.9590   97.0006   61.8553 N   0  0  0  0  0  0  0  0  0  0  0  0
   12.9720   95.6654   61.7291 C   0  0  0  0  0  0  0  0  0  0  0  0
   13.4037   94.7796   62.8002 C   0  0  0  0  0  0  0  0  0  0  0  0
   13.7401   95.2791   64.0412 C   0  0  0  0  0  0  0  0  0  0  0  0
   14.1510   94.4712   65.0730 C   0  0  0  0  0  0  0  0  0  0  0  0
   14.2265   93.1160   64.8505 C   0  0  0  0  0  0  0  0  0  0  0  0
   13.8909   92.6222   63.6141 C   0  0  0  0  0  0  0  0  0  0  0  0
   13.4967   93.4535   62.6437 N   0  0  0  0  0  0  0  0  0  0  0  0
   12.5599   95.1521   60.5419 N   0  0  0  0  0  0  0  0  0  0  0  0
   12.1596   95.9593   59.5469 C   0  0  0  0  0  0  0  0  0  0  0  0
  1  2  1  0
  2  3  1  0
  3  4  1  0
  4  5  2  0
  5  6  1  0
  6  7  2  0
  7  8  1  0
  8  9  2  0
  2 10  1  0
 10 11  1  0
 11 12  2  0
 12 13  1  0
 13 14  2  0
 14 15  1  0
 15 16  2  0
 16 17  1  0
 17 18  2  0
 18 19  1  0
 19 20  2  0
 14 21  1  0
 21 22  2  0
  9  4  1  0
 22 11  1  0
 20 15  1  0
M  END
$$$$
