
     RDKit          3D

 23 25  0  0  0  0  0  0  0  0999 V2000
   16.5107   48.0019   19.2704 C   0  0  0  0  0  0  0  0  0  0  0  0
   16.2643   48.9467   18.1214 C   0  0  0  0  0  0  0  0  0  0  0  0
   16.9077   48.9393   16.8956 C   0  0  0  0  0  0  0  0  0  0  0  0
   16.3758   49.9677   16.1528 C   0  0  0  0  0  0  0  0  0  0  0  0
   15.4198   50.5772   16.9461 C   0  0  0  0  0  0  0  0  0  0  0  0
   14.5748   51.7610   16.5398 C   0  0  0  0  0  0  0  0  0  0  0  0
   15.4160   52.6949   15.8156 N   0  0  0  0  0  0  0  0  0  0  0  0
   14.9666   53.3790   14.6450 C   0  0  0  0  0  0  0  0  0  0  0  0
   13.7584   53.2345   14.3078 O   0  0  0  0  0  0  0  0  0  0  0  0
   15.9523   54.2053   13.9178 C   0  0  0  0  0  0  0  0  0  0  0  0
   15.3794   55.2353   13.0832 N   0  0  0  0  0  0  0  0  0  0  0  0
   16.1261   56.4365   13.0965 C   0  0  0  0  0  0  0  0  0  0  0  0
   15.4091   57.6777   13.5198 C   0  0  0  0  0  0  0  0  0  0  0  0
   14.0720   57.6957   13.0292 N   0  0  0  0  0  0  0  0  0  0  0  0
   13.5291   58.7668   12.2726 C   0  0  0  0  0  0  0  0  0  0  0  0
   12.3556   58.6921   11.5742 C   0  0  0  0  0  0  0  0  0  0  0  0
   11.8248   59.7467   10.8346 C   0  0  0  0  0  0  0  0  0  0  0  0
   12.5143   60.9324   10.8002 C   0  0  0  0  0  0  0  0  0  0  0  0
   13.6969   60.9973   11.5075 C   0  0  0  0  0  0  0  0  0  0  0  0
   14.1790   59.9656   12.2082 N   0  0  0  0  0  0  0  0  0  0  0  0
   13.2561   56.5376   13.3543 C   0  0  0  0  0  0  0  0  0  0  0  0
   13.9785   55.2666   13.1647 C   0  0  0  0  0  0  0  0  0  0  0  0
   15.4110   49.9306   18.0740 O   0  0  0  0  0  0  0  0  0  0  0  0
  1  2  1  0
  2  3  2  0
  3  4  1  0
  4  5  2  0
  5  6  1  0
  6  7  1  0
  7  8  1  0
  8  9  2  0
  8 10  1  0
 10 11  1  0
 11 12  1  0
 12 13  1  0
 13 14  1  0
 14 15  1  0
 15 16  2  0
 16 17  1  0
 17 18  2  0
 18 19  1  0
 19 20  2  0
 14 21  1  0
 21 22  1  0
  5 23  1  0
 23  2  1  0
 22 11  1  0
 20 15  1  0
M  END
$$$$
