
     RDKit          3D

 35 40  0  0  0  0  0  0  0  0999 V2000
   16.1784   56.1588   13.8735 O   0  0  0  0  0  0  0  0  0  0  0  0
   15.8815   57.3714   13.7663 C   0  0  0  0  0  0  0  0  0  0  0  0
   16.6894   58.4225   14.2847 N   0  0  0  0  0  0  0  0  0  0  0  0
   16.5740   59.6963   13.5870 C   0  0  0  0  0  0  0  0  0  0  0  0
   15.1303   60.1179   13.4878 C   0  0  0  0  0  0  0  0  0  0  0  0
   14.5643   60.4684   14.8410 C   0  0  0  0  0  0  0  0  0  0  0  0
   15.3502   61.5900   15.4975 C   0  0  0  0  0  0  0  0  0  0  0  0
   15.2464   62.8151   14.6458 C   0  0  0  0  0  0  0  0  0  0  0  0
   14.5285   62.5504   13.3357 C   0  0  0  0  0  0  0  0  0  0  0  0
   15.0722   61.3486   12.6118 C   0  0  0  0  0  0  0  0  0  0  0  0
   14.3237   59.0395   12.9592 N   0  0  0  0  0  0  0  0  0  0  0  0
   14.6488   57.7435   13.0777 C   0  0  0  0  0  0  0  0  0  0  0  0
   13.6990   56.9377   12.4861 C   0  0  0  0  0  0  0  0  0  0  0  0
   12.7492   57.7808   11.9825 C   0  0  0  0  0  0  0  0  0  0  0  0
   11.5734   57.5164   11.2895 C   0  0  0  0  0  0  0  0  0  0  0  0
   10.8352   58.5761   10.9198 N   0  0  0  0  0  0  0  0  0  0  0  0
   11.1921   59.8427   11.1933 C   0  0  0  0  0  0  0  0  0  0  0  0
   10.3341   60.8859   10.7570 N   0  0  0  0  0  0  0  0  0  0  0  0
   10.5062   62.2354   11.1727 C   0  0  0  0  0  0  0  0  0  0  0  0
   11.4887   62.6339   12.0342 C   0  0  0  0  0  0  0  0  0  0  0  0
   11.6257   63.9485   12.4165 C   0  0  0  0  0  0  0  0  0  0  0  0
   10.7591   64.9396   11.9361 C   0  0  0  0  0  0  0  0  0  0  0  0
   10.9217   66.2896   12.3413 N   0  0  0  0  0  0  0  0  0  0  0  0
   10.6800   66.6608   13.7067 C   0  0  0  0  0  0  0  0  0  0  0  0
   11.7623   67.7013   14.0606 C   0  0  0  0  0  0  0  0  0  0  0  0
   11.4991   68.8560   13.3094 N   0  0  0  0  0  0  0  0  0  0  0  0
   11.2759   70.0792   13.9574 C   0  0  0  0  0  0  0  0  0  0  0  0
   11.3524   71.2334   12.9899 C   0  0  0  0  0  0  0  0  0  0  0  0
   11.2171   72.4466   13.6084 O   0  0  0  0  0  0  0  0  0  0  0  0
   11.1616   68.7085   11.9545 C   0  0  0  0  0  0  0  0  0  0  0  0
   11.3211   67.3227   11.4075 C   0  0  0  0  0  0  0  0  0  0  0  0
    9.7906   64.5024   11.0772 C   0  0  0  0  0  0  0  0  0  0  0  0
    9.6804   63.1956   10.7180 N   0  0  0  0  0  0  0  0  0  0  0  0
   12.3288   60.0652   11.8615 N   0  0  0  0  0  0  0  0  0  0  0  0
   13.1398   59.0670   12.2766 C   0  0  0  0  0  0  0  0  0  0  0  0
  1  2  2  0
  2  3  1  0
  3  4  1  0
  4  5  1  0
  5  6  1  0
  6  7  1  0
  7  8  1  0
  8  9  1  0
  9 10  1  0
  5 11  1  0
 11 12  1  0
 12 13  2  0
 13 14  1  0
 14 15  2  0
 15 16  1  0
 16 17  2  0
 17 18  1  0
 18 19  1  0
 19 20  2  0
 20 21  1  0
 21 22  2  0
 22 23  1  0
 23 24  1  0
 24 25  1  0
 25 26  1  0
 26 27  1  0
 27 28  1  0
 28 29  1  0
 26 30  1  0
 30 31  1  0
 22 32  1  0
 32 33  2  0
 17 34  1  0
 34 35  2  0
 12  2  1  0
 35 14  1  0
 10  5  1  0
 35 11  1  0
 33 19  1  0
 31 23  1  0
M  END
$$$$
