
     RDKit          3D

 28 30  0  0  0  0  0  0  0  0999 V2000
  -15.0767   56.7910   31.1037 C   0  0  0  0  0  0  0  0  0  0  0  0
  -13.9925   56.4033   30.3606 O   0  0  0  0  0  0  0  0  0  0  0  0
  -13.0622   57.4186   30.2196 C   0  0  0  0  0  0  0  0  0  0  0  0
  -12.2220   57.6611   31.4293 C   0  0  0  0  0  0  0  0  0  0  0  0
  -11.2313   58.6945   31.2689 N   0  0  0  0  0  0  0  0  0  0  0  0
  -10.9760   58.9217   29.8419 C   0  0  0  0  0  0  0  0  0  0  0  0
   -9.9633   60.0374   29.7305 C   0  0  0  0  0  0  0  0  0  0  0  0
   -8.7279   59.6138   30.2593 N   0  0  0  0  0  0  0  0  0  0  0  0
   -8.0623   60.5690   31.1179 C   0  0  0  0  0  0  0  0  0  0  0  0
   -6.8604   61.2233   30.5587 C   0  0  0  0  0  0  0  0  0  0  0  0
   -5.6600   60.8174   31.0469 O   0  0  0  0  0  0  0  0  0  0  0  0
   -4.5460   61.1928   30.3276 C   0  0  0  0  0  0  0  0  0  0  0  0
   -3.5423   60.1296   30.1823 C   0  0  0  0  0  0  0  0  0  0  0  0
   -2.7445   60.1301   29.0592 C   0  0  0  0  0  0  0  0  0  0  0  0
   -1.7761   59.1841   28.8177 C   0  0  0  0  0  0  0  0  0  0  0  0
   -1.6106   58.1850   29.7687 C   0  0  0  0  0  0  0  0  0  0  0  0
   -0.6776   57.2194   29.5981 F   0  0  0  0  0  0  0  0  0  0  0  0
   -2.3998   58.1769   30.8887 C   0  0  0  0  0  0  0  0  0  0  0  0
   -3.3546   59.1269   31.1066 C   0  0  0  0  0  0  0  0  0  0  0  0
   -4.0093   62.4070   30.9977 C   0  0  0  0  0  0  0  0  0  0  0  0
   -3.6993   62.4484   32.3342 C   0  0  0  0  0  0  0  0  0  0  0  0
   -3.1980   63.5881   32.9454 C   0  0  0  0  0  0  0  0  0  0  0  0
   -3.0009   64.7234   32.1913 C   0  0  0  0  0  0  0  0  0  0  0  0
   -2.5059   65.8212   32.8368 F   0  0  0  0  0  0  0  0  0  0  0  0
   -3.3014   64.7068   30.8596 C   0  0  0  0  0  0  0  0  0  0  0  0
   -3.7978   63.5629   30.2774 C   0  0  0  0  0  0  0  0  0  0  0  0
   -8.8622   58.3467   30.9279 C   0  0  0  0  0  0  0  0  0  0  0  0
  -10.0088   58.3231   31.9261 C   0  0  0  0  0  0  0  0  0  0  0  0
  1  2  1  0
  2  3  1  0
  3  4  1  0
  4  5  1  0
  5  6  1  0
  6  7  1  0
  7  8  1  0
  8  9  1  0
  9 10  1  0
 10 11  1  0
 11 12  1  0
 12 13  1  0
 13 14  2  0
 14 15  1  0
 15 16  2  0
 16 17  1  0
 16 18  1  0
 18 19  2  0
 12 20  1  0
 20 21  2  0
 21 22  1  0
 22 23  2  0
 23 24  1  0
 23 25  1  0
 25 26  2  0
  8 27  1  0
 27 28  1  0
 28  5  1  0
 19 13  1  0
 26 20  1  0
M  END
$$$$
