
     RDKit          3D

 32 36  0  0  0  0  0  0  0  0999 V2000
   14.1726   51.7107   16.0852 O   0  0  0  0  0  0  0  0  0  0  0  0
   14.8854   52.5112   15.4259 C   0  0  0  0  0  0  0  0  0  0  0  0
   14.5158   53.4623   14.4503 N   0  0  0  0  0  0  0  0  0  0  0  0
   15.6102   54.4008   14.2953 C   0  0  0  0  0  0  0  0  0  0  0  0
   15.4599   55.6018   15.1858 C   0  0  0  0  0  0  0  0  0  0  0  0
   15.8185   56.8337   14.4288 C   0  0  0  0  0  0  0  0  0  0  0  0
   15.0154   57.0072   13.2380 N   0  0  0  0  0  0  0  0  0  0  0  0
   14.5866   58.3114   12.9117 C   0  0  0  0  0  0  0  0  0  0  0  0
   15.1166   59.4348   13.4811 N   0  0  0  0  0  0  0  0  0  0  0  0
   14.6732   60.6553   13.1373 C   0  0  0  0  0  0  0  0  0  0  0  0
   13.7035   60.8516   12.2336 N   0  0  0  0  0  0  0  0  0  0  0  0
   13.1369   59.7839   11.6329 C   0  0  0  0  0  0  0  0  0  0  0  0
   12.1818   59.6586   10.7229 N   0  0  0  0  0  0  0  0  0  0  0  0
   12.0001   58.3910   10.4731 N   0  0  0  0  0  0  0  0  0  0  0  0
   12.8361   57.6484   11.2172 C   0  0  0  0  0  0  0  0  0  0  0  0
   13.5909   58.5103   11.9835 C   0  0  0  0  0  0  0  0  0  0  0  0
   14.7091   55.8236   12.4631 C   0  0  0  0  0  0  0  0  0  0  0  0
   15.7023   54.7286   12.8278 C   0  0  0  0  0  0  0  0  0  0  0  0
   16.7706   53.5828   14.6907 C   0  0  0  0  0  0  0  0  0  0  0  0
   17.9468   53.7640   14.2958 O   0  0  0  0  0  0  0  0  0  0  0  0
   16.2972   52.5822   15.5805 N   0  0  0  0  0  0  0  0  0  0  0  0
   17.1268   51.7867   16.4772 C   0  0  0  0  0  0  0  0  0  0  0  0
   16.4879   50.4867   16.7454 C   0  0  0  0  0  0  0  0  0  0  0  0
   17.0995   49.2912   16.4568 C   0  0  0  0  0  0  0  0  0  0  0  0
   16.4768   48.0687   16.7189 C   0  0  0  0  0  0  0  0  0  0  0  0
   15.2076   48.1048   17.2861 C   0  0  0  0  0  0  0  0  0  0  0  0
   14.5723   49.2916   17.5851 C   0  0  0  0  0  0  0  0  0  0  0  0
   13.2150   49.2605   18.1908 C   0  0  0  0  0  0  0  0  0  0  0  0
   13.1822   48.3758   19.2601 F   0  0  0  0  0  0  0  0  0  0  0  0
   12.9207   50.5546   18.6105 F   0  0  0  0  0  0  0  0  0  0  0  0
   12.2740   48.8718   17.2532 F   0  0  0  0  0  0  0  0  0  0  0  0
   15.2338   50.4560   17.3049 C   0  0  0  0  0  0  0  0  0  0  0  0
  1  2  2  0
  2  3  1  0
  3  4  1  0
  4  5  1  0
  5  6  1  0
  6  7  1  0
  7  8  1  0
  8  9  2  0
  9 10  1  0
 10 11  2  0
 11 12  1  0
 12 13  1  0
 13 14  1  0
 14 15  2  0
 15 16  1  0
  7 17  1  0
 17 18  1  0
  4 19  1  0
 19 20  2  0
 19 21  1  0
 21 22  1  0
 22 23  1  0
 23 24  2  0
 24 25  1  0
 25 26  2  0
 26 27  1  0
 27 28  1  0
 28 29  1  0
 28 30  1  0
 28 31  1  0
 27 32  2  0
 21  2  1  0
 32 23  1  0
 18  4  1  0
 16  8  1  0
 16 12  2  0
M  END
$$$$
