
     RDKit          3D

 26 28  0  0  0  0  0  0  0  0999 V2000
   11.2934   99.9421   53.1383 C   0  0  0  0  0  0  0  0  0  0  0  0
   12.0407   98.8350   53.7613 C   0  0  0  0  0  0  0  0  0  0  0  0
   12.4067   99.1349   55.1463 N   0  0  0  0  0  0  0  0  0  0  0  0
   11.6783   98.6845   56.2273 C   0  0  0  0  0  0  0  0  0  0  0  0
   10.8628   97.8714   56.4558 O   0  0  0  0  0  0  0  0  0  0  0  0
   11.9734   99.4736   57.6632 C   0  0  0  0  0  0  0  0  0  0  0  0
   11.0301  100.6116   57.4788 C   0  0  0  0  0  0  0  0  0  0  0  0
   11.3696   98.5393   58.7243 C   0  0  0  0  0  0  0  0  0  0  0  0
   10.2292   98.9716   59.1095 O   0  0  0  0  0  0  0  0  0  0  0  0
   11.9934   97.3736   59.1687 N   0  0  0  0  0  0  0  0  0  0  0  0
   11.3821   96.5401   60.0892 C   0  0  0  0  0  0  0  0  0  0  0  0
   12.2298   96.0140   61.1548 C   0  0  0  0  0  0  0  0  0  0  0  0
   12.9740   95.5284   62.0903 C   0  0  0  0  0  0  0  0  0  0  0  0
   13.7419   95.0449   63.0328 C   0  0  0  0  0  0  0  0  0  0  0  0
   13.2704   94.6887   64.3514 C   0  0  0  0  0  0  0  0  0  0  0  0
   13.9361   93.8785   65.2244 C   0  0  0  0  0  0  0  0  0  0  0  0
   15.1496   93.3282   64.9054 C   0  0  0  0  0  0  0  0  0  0  0  0
   15.6697   93.6564   63.6822 C   0  0  0  0  0  0  0  0  0  0  0  0
   15.0296   94.4406   62.8293 C   0  0  0  0  0  0  0  0  0  0  0  0
   13.3081   99.5354   57.7032 O   0  0  0  0  0  0  0  0  0  0  0  0
   14.0896  100.0171   56.7093 C   0  0  0  0  0  0  0  0  0  0  0  0
   15.2875  100.6673   56.7358 C   0  0  0  0  0  0  0  0  0  0  0  0
   16.0486  101.1553   55.7308 C   0  0  0  0  0  0  0  0  0  0  0  0
   15.5792  100.9821   54.4769 C   0  0  0  0  0  0  0  0  0  0  0  0
   14.3539  100.3066   54.3195 C   0  0  0  0  0  0  0  0  0  0  0  0
   13.6140   99.8210   55.3346 C   0  0  0  0  0  0  0  0  0  0  0  0
  1  2  1  0
  2  3  1  0
  3  4  1  0
  4  5  2  0
  4  6  1  0
  6  7  1  0
  6  8  1  0
  8  9  2  0
  8 10  1  0
 10 11  1  0
 11 12  1  0
 12 13  3  0
 13 14  1  0
 14 15  2  0
 15 16  1  0
 16 17  2  0
 17 18  1  0
 18 19  2  0
  6 20  1  0
 20 21  1  0
 21 22  2  0
 22 23  1  0
 23 24  2  0
 24 25  1  0
 25 26  2  0
 26  3  1  0
 19 14  1  0
 26 21  1  0
M  END
$$$$
