
     RDKit          3D

 20 22  0  0  0  0  0  0  0  0999 V2000
   12.3395   98.8101   61.9059 C   0  0  0  0  0  0  0  0  0  0  0  0
   12.1023   97.5714   61.1793 N   0  0  0  0  0  0  0  0  0  0  0  0
   12.1565   96.3353   61.9508 C   0  0  0  0  0  0  0  0  0  0  0  0
   13.5659   95.8936   62.1684 C   0  0  0  0  0  0  0  0  0  0  0  0
   13.7877   95.0647   63.2365 O   0  0  0  0  0  0  0  0  0  0  0  0
   13.9854   93.7761   62.8350 C   0  0  0  0  0  0  0  0  0  0  0  0
   14.6724   92.9304   63.8952 C   0  0  0  0  0  0  0  0  0  0  0  0
   15.0915   91.5613   63.3611 C   0  0  0  0  0  0  0  0  0  0  0  0
   16.0960   92.6106   63.8291 C   0  0  0  0  0  0  0  0  0  0  0  0
   11.8430   97.6212   59.7918 C   0  0  0  0  0  0  0  0  0  0  0  0
   11.9675   96.5837   59.0764 O   0  0  0  0  0  0  0  0  0  0  0  0
   11.4307   98.8609   59.1568 C   0  0  0  0  0  0  0  0  0  0  0  0
   10.3020   99.5650   59.4596 C   0  0  0  0  0  0  0  0  0  0  0  0
    9.9602  100.7391   58.8100 C   0  0  0  0  0  0  0  0  0  0  0  0
   10.7669  101.2471   57.8134 C   0  0  0  0  0  0  0  0  0  0  0  0
   11.9188  100.5441   57.4922 C   0  0  0  0  0  0  0  0  0  0  0  0
   12.8945  100.7658   56.5898 N   0  0  0  0  0  0  0  0  0  0  0  0
   13.8196   99.8008   56.6409 C   0  0  0  0  0  0  0  0  0  0  0  0
   13.4280   98.9142   57.6185 C   0  0  0  0  0  0  0  0  0  0  0  0
   12.2368   99.3916   58.1431 C   0  0  0  0  0  0  0  0  0  0  0  0
  1  2  1  0
  2  3  1  0
  3  4  1  0
  4  5  1  0
  5  6  1  0
  6  7  1  0
  7  8  1  0
  8  9  1  0
  2 10  1  0
 10 11  2  0
 10 12  1  0
 12 13  2  0
 13 14  1  0
 14 15  2  0
 15 16  1  0
 16 17  1  0
 17 18  1  0
 18 19  2  0
 19 20  1  0
  9  7  1  0
 20 12  1  0
 20 16  2  0
M  END
$$$$
