
     RDKit          3D

 21 23  0  0  0  0  0  0  0  0999 V2000
   10.8964  102.5715   56.8165 Br  0  0  0  0  0  0  0  0  0  0  0  0
   11.8871  100.9546   56.9450 C   0  0  0  0  0  0  0  0  0  0  0  0
   12.9317  100.6962   56.0682 C   0  0  0  0  0  0  0  0  0  0  0  0
   13.6430   99.5189   56.1721 C   0  0  0  0  0  0  0  0  0  0  0  0
   13.2721   98.6363   57.1652 C   0  0  0  0  0  0  0  0  0  0  0  0
   12.2428   98.8662   58.0463 C   0  0  0  0  0  0  0  0  0  0  0  0
   11.9109   97.9510   59.0228 C   0  0  0  0  0  0  0  0  0  0  0  0
   10.8794   98.1908   59.8992 C   0  0  0  0  0  0  0  0  0  0  0  0
   10.4823   97.2433   60.9642 C   0  0  0  0  0  0  0  0  0  0  0  0
   11.4647   96.1620   60.9501 N   0  0  0  0  0  0  0  0  0  0  0  0
   12.3376   96.2236   62.1160 C   0  0  0  0  0  0  0  0  0  0  0  0
   11.8602   95.1490   63.0689 C   0  0  0  0  0  0  0  0  0  0  0  0
   12.8920   94.1399   63.3617 C   0  0  0  0  0  0  0  0  0  0  0  0
   14.2421   94.4119   63.3449 C   0  0  0  0  0  0  0  0  0  0  0  0
   15.1976   93.4486   63.6233 C   0  0  0  0  0  0  0  0  0  0  0  0
   14.7986   92.1618   63.9312 C   0  0  0  0  0  0  0  0  0  0  0  0
   13.4410   91.9129   63.9420 C   0  0  0  0  0  0  0  0  0  0  0  0
   12.5329   92.8693   63.6671 N   0  0  0  0  0  0  0  0  0  0  0  0
   10.1817   99.3697   59.7806 C   0  0  0  0  0  0  0  0  0  0  0  0
   10.4935  100.3014   58.8129 C   0  0  0  0  0  0  0  0  0  0  0  0
   11.5279  100.0603   57.9345 C   0  0  0  0  0  0  0  0  0  0  0  0
  1  2  1  0
  2  3  2  0
  3  4  1  0
  4  5  2  0
  5  6  1  0
  6  7  2  0
  7  8  1  0
  8  9  1  0
  9 10  1  0
 10 11  1  0
 11 12  1  0
 12 13  1  0
 13 14  2  0
 14 15  1  0
 15 16  2  0
 16 17  1  0
 17 18  2  0
  8 19  2  0
 19 20  1  0
 20 21  2  0
 21  2  1  0
 21  6  1  0
 18 13  1  0
M  END
$$$$
