
     RDKit          3D

 29 32  0  0  0  0  0  0  0  0999 V2000
   10.0318   94.2346   65.0863 C   0  0  0  0  0  0  0  0  0  0  0  0
   11.2381   94.8178   64.6261 O   0  0  0  0  0  0  0  0  0  0  0  0
   11.3156   95.3364   63.3519 C   0  0  0  0  0  0  0  0  0  0  0  0
   10.3044   96.1135   62.8110 C   0  0  0  0  0  0  0  0  0  0  0  0
   10.4047   96.6185   61.5401 C   0  0  0  0  0  0  0  0  0  0  0  0
   11.5384   96.3361   60.8066 C   0  0  0  0  0  0  0  0  0  0  0  0
   11.6230   96.8711   59.4864 N   0  0  0  0  0  0  0  0  0  0  0  0
   12.8342   97.4321   59.0201 C   0  0  0  0  0  0  0  0  0  0  0  0
   13.8509   97.2957   59.7665 O   0  0  0  0  0  0  0  0  0  0  0  0
   12.9691   98.1451   57.7494 C   0  0  0  0  0  0  0  0  0  0  0  0
   11.8668   98.2284   56.9294 C   0  0  0  0  0  0  0  0  0  0  0  0
   12.0229   98.9001   55.7496 C   0  0  0  0  0  0  0  0  0  0  0  0
   13.2366   99.4772   55.3846 C   0  0  0  0  0  0  0  0  0  0  0  0
   14.3148   99.3937   56.1906 C   0  0  0  0  0  0  0  0  0  0  0  0
   14.1715   98.7062   57.4078 C   0  0  0  0  0  0  0  0  0  0  0  0
   15.5678   99.9702   55.8567 N   0  0  0  0  0  0  0  0  0  0  0  0
   15.8727  100.6848   54.6931 C   0  0  0  0  0  0  0  0  0  0  0  0
   17.0428  100.7569   54.2388 O   0  0  0  0  0  0  0  0  0  0  0  0
   14.8126  101.4154   53.9088 C   0  0  0  0  0  0  0  0  0  0  0  0
   14.4106  102.6437   54.6954 C   0  0  0  0  0  0  0  0  0  0  0  0
   13.3543  100.3400   53.8120 S   0  0  0  0  0  0  0  0  0  0  0  0
   12.5418   95.5597   61.3553 C   0  0  0  0  0  0  0  0  0  0  0  0
   12.4599   95.0415   62.6339 C   0  0  0  0  0  0  0  0  0  0  0  0
   13.5138   94.2621   63.1282 N   0  0  0  0  0  0  0  0  0  0  0  0
   14.8376   94.6559   63.4369 C   0  0  0  0  0  0  0  0  0  0  0  0
   15.7699   94.0293   62.3911 C   0  0  0  0  0  0  0  0  0  0  0  0
   15.5834   92.5437   62.4889 C   0  0  0  0  0  0  0  0  0  0  0  0
   14.5930   92.1392   63.5363 C   0  0  0  0  0  0  0  0  0  0  0  0
   13.2597   92.8497   63.3729 C   0  0  0  0  0  0  0  0  0  0  0  0
  1  2  1  0
  2  3  1  0
  3  4  2  0
  4  5  1  0
  5  6  2  0
  6  7  1  0
  7  8  1  0
  8  9  2  0
  8 10  1  0
 10 11  2  0
 11 12  1  0
 12 13  2  0
 13 14  1  0
 14 15  2  0
 14 16  1  0
 16 17  1  0
 17 18  2  0
 17 19  1  0
 19 20  1  0
 19 21  1  0
  6 22  1  0
 22 23  2  0
 23 24  1  0
 24 25  1  0
 25 26  1  0
 26 27  1  0
 27 28  1  0
 28 29  1  0
 23  3  1  0
 29 24  1  0
 15 10  1  0
 21 13  1  0
M  END
$$$$
