
     RDKit          3D

 25 28  0  0  0  0  0  0  0  0999 V2000
   13.2605   61.6043   12.0775 C   0  0  0  0  0  0  0  0  0  0  0  0
   13.7643   60.2387   11.6928 C   0  0  0  0  0  0  0  0  0  0  0  0
   14.5036   59.6356   12.7556 O   0  0  0  0  0  0  0  0  0  0  0  0
   14.7545   58.2723   12.7228 C   0  0  0  0  0  0  0  0  0  0  0  0
   15.8263   57.7364   13.4057 C   0  0  0  0  0  0  0  0  0  0  0  0
   16.1030   56.3692   13.3908 C   0  0  0  0  0  0  0  0  0  0  0  0
   15.3003   55.5006   12.6818 C   0  0  0  0  0  0  0  0  0  0  0  0
   15.5572   54.0444   12.6406 C   0  0  0  0  0  0  0  0  0  0  0  0
   16.3832   53.6742   13.7208 N   0  0  0  0  0  0  0  0  0  0  0  0
   15.7909   53.8080   15.0217 C   0  0  0  0  0  0  0  0  0  0  0  0
   15.0775   52.5250   15.3819 C   0  0  0  0  0  0  0  0  0  0  0  0
   15.8971   51.2960   15.2007 C   0  0  0  0  0  0  0  0  0  0  0  0
   16.6856   51.2449   13.9155 C   0  0  0  0  0  0  0  0  0  0  0  0
   17.2690   52.5910   13.5726 C   0  0  0  0  0  0  0  0  0  0  0  0
   14.9979   50.0947   15.3241 C   0  0  0  0  0  0  0  0  0  0  0  0
   15.2105   49.6901   16.6855 N   0  0  0  0  0  0  0  0  0  0  0  0
   14.5841   48.5942   17.4365 C   0  0  0  0  0  0  0  0  0  0  0  0
   16.1786   50.5388   17.2840 C   0  0  0  0  0  0  0  0  0  0  0  0
   16.4539   50.6940   18.5191 O   0  0  0  0  0  0  0  0  0  0  0  0
   16.8252   51.2202   16.2634 O   0  0  0  0  0  0  0  0  0  0  0  0
   14.2296   56.0418   12.0004 C   0  0  0  0  0  0  0  0  0  0  0  0
   13.9584   57.3941   12.0169 C   0  0  0  0  0  0  0  0  0  0  0  0
   12.8514   57.9628   11.3139 N   0  0  0  0  0  0  0  0  0  0  0  0
   12.6296   59.3561   11.3721 C   0  0  0  0  0  0  0  0  0  0  0  0
   11.4604   59.7899   11.1454 O   0  0  0  0  0  0  0  0  0  0  0  0
  1  2  1  0
  2  3  1  0
  3  4  1  0
  4  5  2  0
  5  6  1  0
  6  7  2  0
  7  8  1  0
  8  9  1  0
  9 10  1  0
 10 11  1  0
 11 12  1  0
 12 13  1  0
 13 14  1  0
 12 15  1  0
 15 16  1  0
 16 17  1  0
 16 18  1  0
 18 19  2  0
 18 20  1  0
  7 21  1  0
 21 22  2  0
 22 23  1  0
 23 24  1  0
 24 25  2  0
 24  2  1  0
 22  4  1  0
 14  9  1  0
 20 12  1  0
M  END
$$$$
