
     RDKit          3D

 25 28  0  0  0  0  0  0  0  0999 V2000
   12.7463   56.6602   11.5210 N   0  0  0  0  0  0  0  0  0  0  0  0
   12.9936   57.9877   12.0379 C   0  0  0  0  0  0  0  0  0  0  0  0
   12.0791   58.8398   11.9809 N   0  0  0  0  0  0  0  0  0  0  0  0
   10.8017   58.7349   11.6180 O   0  0  0  0  0  0  0  0  0  0  0  0
   14.2890   58.2364   12.6354 C   0  0  0  0  0  0  0  0  0  0  0  0
   14.7188   59.5118   12.9002 C   0  0  0  0  0  0  0  0  0  0  0  0
   15.9512   59.7481   13.5079 C   0  0  0  0  0  0  0  0  0  0  0  0
   16.6636   58.5807   13.8023 C   0  0  0  0  0  0  0  0  0  0  0  0
   16.2242   57.3670   13.5365 N   0  0  0  0  0  0  0  0  0  0  0  0
   15.0469   57.0942   12.9520 C   0  0  0  0  0  0  0  0  0  0  0  0
   14.5451   55.8506   12.6546 O   0  0  0  0  0  0  0  0  0  0  0  0
   15.3178   54.7303   12.9148 C   0  0  1  0  0  0  0  0  0  0  0  0
   16.4957   54.9704   13.8573 C   0  0  0  0  0  0  0  0  0  0  0  0
   16.2914   53.4809   14.1912 C   0  0  1  0  0  0  0  0  0  0  0  0
   16.7535   53.1646   15.4794 N   0  0  0  0  0  0  0  0  0  0  0  0
   16.1887   51.9351   16.0645 C   0  0  0  0  0  0  0  0  0  0  0  0
   15.1840   51.4028   16.2816 N   0  0  0  0  0  0  0  0  0  0  0  0
   14.9578   50.2365   16.8606 C   0  0  0  0  0  0  0  0  0  0  0  0
   13.7082   49.6320   17.1036 C   0  0  0  0  0  0  0  0  0  0  0  0
   13.6790   48.3923   17.7308 C   0  0  0  0  0  0  0  0  0  0  0  0
   14.8059   47.7152   18.1345 C   0  0  0  0  0  0  0  0  0  0  0  0
   16.0088   48.3285   17.8816 C   0  0  0  0  0  0  0  0  0  0  0  0
   16.0566   49.5680   17.2567 C   0  0  0  0  0  0  0  0  0  0  0  0
   17.4025   50.6592   16.7713 S   0  0  0  0  0  0  0  0  0  0  0  0
   14.8308   53.7691   13.9789 C   0  0  0  0  0  0  0  0  0  0  0  0
  1  2  1  0
  2  3  2  3
  3  4  1  0
  2  5  1  0
  5  6  2  0
  6  7  1  0
  7  8  2  0
  8  9  1  0
  9 10  2  0
 10 11  1  0
 12 11  1  1
 12 13  1  0
 13 14  1  0
 14 15  1  1
 15 16  1  0
 16 17  2  0
 17 18  1  0
 18 19  2  0
 19 20  1  0
 20 21  2  0
 21 22  1  0
 22 23  2  0
 23 24  1  0
 14 25  1  0
 10  5  1  0
 25 12  1  0
 24 16  1  0
 23 18  1  0
M  END
$$$$
