
     RDKit          3D

 22 24  0  0  0  0  0  0  0  0999 V2000
   15.1468   53.5496   16.1124 O   0  0  0  0  0  0  0  0  0  0  0  0
   15.6848   53.0706   15.0886 C   0  0  0  0  0  0  0  0  0  0  0  0
   16.3073   51.8101   15.0771 N   0  0  0  0  0  0  0  0  0  0  0  0
   16.1897   50.8498   16.1443 C   0  0  0  0  0  0  0  0  0  0  0  0
   17.3352   50.1019   16.4681 C   0  0  0  0  0  0  0  0  0  0  0  0
   17.2879   49.1750   17.4713 C   0  0  0  0  0  0  0  0  0  0  0  0
   16.1175   48.9508   18.1893 C   0  0  0  0  0  0  0  0  0  0  0  0
   14.9851   49.6655   17.8954 C   0  0  0  0  0  0  0  0  0  0  0  0
   13.7345   49.4418   18.6459 C   0  0  0  0  0  0  0  0  0  0  0  0
   13.9809   49.0267   19.9394 F   0  0  0  0  0  0  0  0  0  0  0  0
   12.9672   50.5751   18.6652 F   0  0  0  0  0  0  0  0  0  0  0  0
   12.9959   48.4577   18.0049 F   0  0  0  0  0  0  0  0  0  0  0  0
   15.0647   50.6071   16.8634 C   0  0  0  0  0  0  0  0  0  0  0  0
   15.6576   53.8695   13.8529 C   0  0  0  0  0  0  0  0  0  0  0  0
   14.7037   54.8329   13.6124 C   0  0  0  0  0  0  0  0  0  0  0  0
   14.6461   55.6057   12.4600 C   0  0  0  0  0  0  0  0  0  0  0  0
   15.6162   55.3649   11.5278 C   0  0  0  0  0  0  0  0  0  0  0  0
   16.5701   54.3964   11.7765 C   0  0  0  0  0  0  0  0  0  0  0  0
   17.6095   53.9854   11.0214 N   0  0  0  0  0  0  0  0  0  0  0  0
   18.2498   53.0408   11.6571 N   0  0  0  0  0  0  0  0  0  0  0  0
   17.6269   52.8159   12.8600 C   0  0  0  0  0  0  0  0  0  0  0  0
   16.6062   53.6585   12.9025 N   0  0  0  0  0  0  0  0  0  0  0  0
  1  2  2  0
  2  3  1  0
  3  4  1  0
  4  5  2  0
  5  6  1  0
  6  7  2  0
  7  8  1  0
  8  9  1  0
  9 10  1  0
  9 11  1  0
  9 12  1  0
  8 13  2  0
  2 14  1  0
 14 15  2  0
 15 16  1  0
 16 17  2  0
 17 18  1  0
 18 19  2  0
 19 20  1  0
 20 21  2  0
 21 22  1  0
 13  4  1  0
 22 14  1  0
 22 18  1  0
M  END
$$$$
