
     RDKit          3D

 23 24  0  0  0  0  0  0  0  0999 V2000
   37.9350   79.7384   54.3281 C   0  0  0  0  0  0  0  0  0  0  0  0
   37.0998   80.9383   54.1971 C   0  0  0  0  0  0  0  0  0  0  0  0
   37.1819   81.5721   52.8587 N   0  0  0  0  0  4  0  0  0  0  0  0
   36.5672   82.8313   53.0198 C   0  0  0  0  0  0  0  0  0  0  0  0
   36.4127   83.7550   51.8937 C   0  0  0  0  0  0  0  0  0  0  0  0
   38.6094   81.8113   52.5468 C   0  0  0  0  0  0  0  0  0  0  0  0
   39.4313   82.1781   53.7259 C   0  0  0  0  0  0  0  0  0  0  0  0
   36.7250   80.6088   51.9418 C   0  0  0  0  0  0  0  0  0  0  0  0
   36.1480   81.0181   50.6695 C   0  0  0  0  0  0  0  0  0  0  0  0
   36.9373   81.0595   49.5291 C   0  0  0  0  0  0  0  0  0  0  0  0
   36.4278   81.4803   48.3221 C   0  0  0  0  0  0  0  0  0  0  0  0
   35.1161   81.8796   48.1833 C   0  0  0  0  0  0  0  0  0  0  0  0
   34.3130   81.8445   49.3074 C   0  0  0  0  0  0  0  0  0  0  0  0
   32.9765   82.2226   49.2245 C   0  0  0  0  0  0  0  0  0  0  0  0
   32.1435   82.1832   50.3329 C   0  0  0  0  0  0  0  0  0  0  0  0
   30.8011   82.5596   50.2594 C   0  0  0  0  0  0  0  0  0  0  0  0
   29.9898   82.5069   51.3930 C   0  0  0  0  0  0  0  0  0  0  0  0
   30.4974   82.0834   52.6038 C   0  0  0  0  0  0  0  0  0  0  0  0
   31.8252   81.7141   52.6645 C   0  0  0  0  0  0  0  0  0  0  0  0
   32.6446   81.7606   51.5467 C   0  0  0  0  0  0  0  0  0  0  0  0
   33.9697   81.3948   51.5927 C   0  0  0  0  0  0  0  0  0  0  0  0
   34.8304   81.4229   50.5071 C   0  0  0  0  0  0  0  0  0  0  0  0
   35.5580   81.7697   51.8395 Br  0  0  0  0  0 15  0  0  0  0  0  0
  1  2  1  0
  2  3  1  0
  3  4  1  0
  4  5  1  0
  3  6  1  0
  6  7  1  0
  3  8  1  0
  8  9  1  0
  9 10  2  0
 10 11  1  0
 11 12  2  0
 12 13  1  0
 13 14  2  0
 14 15  1  0
 15 16  2  0
 16 17  1  0
 17 18  2  0
 18 19  1  0
 19 20  2  0
 20 21  1  0
 21 22  2  0
 22  9  1  0
 22 13  1  0
 20 15  1  0
M  CHG  2   3   1  23  -1
M  END
$$$$
