
     RDKit          3D

 23 24  0  0  0  0  0  0  0  0999 V2000
   29.1049   80.5006   51.1576 C   0  0  0  0  0  0  0  0  0  0  0  0
   30.4578   81.1353   51.1333 C   0  0  0  0  0  0  0  0  0  0  0  0
   30.9432   81.8564   52.1980 C   0  0  0  0  0  0  0  0  0  0  0  0
   32.2118   82.4367   52.1430 C   0  0  0  0  0  0  0  0  0  0  0  0
   32.6612   83.1958   53.3339 C   0  0  0  0  0  0  0  0  0  0  0  0
   33.0177   82.3136   51.0375 C   0  0  0  0  0  0  0  0  0  0  0  0
   34.3535   82.9165   50.9594 C   0  0  0  0  0  0  0  0  0  0  0  0
   35.4239   82.0941   51.6392 C   0  0  0  0  0  0  0  0  0  0  0  0
   36.7840   82.6200   51.3391 C   0  0  0  0  0  0  0  0  0  0  0  0
   36.8783   83.4827   50.4088 O   0  0  0  0  0  0  0  0  0  0  0  0
   37.9391   82.1880   52.0514 N   0  0  0  0  0  0  0  0  0  0  0  0
   39.1383   82.9297   51.8949 C   0  0  0  0  0  0  0  0  0  0  0  0
   40.1716   82.0090   51.2228 C   0  0  0  0  0  0  0  0  0  0  0  0
   39.7708   83.4139   53.1598 C   0  0  0  0  0  0  0  0  0  0  0  0
   37.9047   81.0218   52.9183 C   0  0  0  0  0  0  0  0  0  0  0  0
   39.3162   80.5415   53.2806 C   0  0  0  0  0  0  0  0  0  0  0  0
   39.1448   79.4933   54.3590 C   0  0  0  0  0  0  0  0  0  0  0  0
   38.4839   78.4218   53.7835 O   0  0  0  0  0  0  0  0  0  0  0  0
   37.2201   78.7298   53.3195 C   0  0  0  0  0  0  0  0  0  0  0  0
   37.2290   79.8313   52.2713 C   0  0  0  0  0  0  0  0  0  0  0  0
   32.5027   81.5863   49.9900 C   0  0  0  0  0  0  0  0  0  0  0  0
   33.3240   81.4161   48.7709 C   0  0  0  0  0  0  0  0  0  0  0  0
   31.2515   81.0057   50.0265 C   0  0  0  0  0  0  0  0  0  0  0  0
  1  2  1  0
  2  3  2  0
  3  4  1  0
  4  5  1  0
  4  6  2  0
  6  7  1  0
  7  8  1  0
  8  9  1  0
  9 10  2  0
  9 11  1  0
 11 12  1  0
 12 13  1  0
 12 14  1  0
 11 15  1  0
 15 16  1  0
 16 17  1  0
 17 18  1  0
 18 19  1  0
 19 20  1  0
  6 21  1  0
 21 22  1  0
 21 23  2  0
 23  2  1  0
 20 15  1  0
M  END
$$$$
