
     RDKit          3D

 23 25  0  0  0  0  0  0  0  0999 V2000
   16.2853   56.0920   10.7270 C   0  0  0  0  0  0  0  0  0  0  0  0
   17.3760   55.2911   10.3476 O   0  0  0  0  0  0  0  0  0  0  0  0
   17.8751   54.3181   11.2229 C   0  0  0  0  0  0  0  0  0  0  0  0
   18.8923   53.5052   10.8157 C   0  0  0  0  0  0  0  0  0  0  0  0
   19.3898   52.5457   11.6663 C   0  0  0  0  0  0  0  0  0  0  0  0
   18.8533   52.4023   12.9503 C   0  0  0  0  0  0  0  0  0  0  0  0
   19.3965   51.4165   13.7529 O   0  0  0  0  0  0  0  0  0  0  0  0
   20.7670   51.4426   14.0716 C   0  0  0  0  0  0  0  0  0  0  0  0
   17.8241   53.2175   13.3783 C   0  0  0  0  0  0  0  0  0  0  0  0
   17.2514   53.1177   14.7194 C   0  0  0  0  0  0  0  0  0  0  0  0
   16.0318   52.4212   14.8693 N   0  0  0  0  0  0  0  0  0  0  0  0
   15.2975   52.2671   13.6279 C   0  0  0  0  0  0  0  0  0  0  0  0
   15.2116   52.7049   15.9858 C   0  0  0  0  0  0  0  0  0  0  0  0
   14.9815   51.4685   16.8163 C   0  0  0  0  0  0  0  0  0  0  0  0
   15.9868   50.7104   17.2804 N   0  0  0  0  0  0  0  0  0  0  0  0
   15.4364   49.6804   17.9871 C   0  0  0  0  0  0  0  0  0  0  0  0
   16.0133   48.6306   18.6619 C   0  0  0  0  0  0  0  0  0  0  0  0
   15.2061   47.7188   19.3000 C   0  0  0  0  0  0  0  0  0  0  0  0
   13.8310   47.8756   19.2501 C   0  0  0  0  0  0  0  0  0  0  0  0
   13.2876   48.9413   18.5635 C   0  0  0  0  0  0  0  0  0  0  0  0
   14.0721   49.8620   17.9204 C   0  0  0  0  0  0  0  0  0  0  0  0
   13.8633   50.9378   17.2136 O   0  0  0  0  0  0  0  0  0  0  0  0
   17.3541   54.1666   12.4932 C   0  0  0  0  0  0  0  0  0  0  0  0
  1  2  1  0
  2  3  1  0
  3  4  2  0
  4  5  1  0
  5  6  2  0
  6  7  1  0
  7  8  1  0
  6  9  1  0
  9 10  1  0
 10 11  1  0
 11 12  1  0
 11 13  1  0
 13 14  1  0
 14 15  2  0
 15 16  1  0
 16 17  2  0
 17 18  1  0
 18 19  2  0
 19 20  1  0
 20 21  2  0
 21 22  1  0
  9 23  2  0
 23  3  1  0
 22 14  1  0
 21 16  1  0
M  END
$$$$
