
     RDKit          3D

 23 25  0  0  0  0  0  0  0  0999 V2000
   15.0775   52.4698   16.9743 C   0  0  0  0  0  0  0  0  0  0  0  0
   14.6042   52.5315   15.6512 O   0  0  0  0  0  0  0  0  0  0  0  0
   14.7780   53.7213   14.9548 C   0  0  0  0  0  0  0  0  0  0  0  0
   15.0439   53.6636   13.6010 C   0  0  0  0  0  0  0  0  0  0  0  0
   15.2176   54.8385   12.9021 C   0  0  0  0  0  0  0  0  0  0  0  0
   15.1376   56.0862   13.4981 C   0  0  0  0  0  0  0  0  0  0  0  0
   15.3693   57.5412   12.5468 S   0  0  0  0  0  6  0  0  0  0  0  0
   16.2712   58.5118   13.2509 O   0  0  0  0  0  0  0  0  0  0  0  0
   16.1053   57.1419   11.2748 O   0  0  0  0  0  0  0  0  0  0  0  0
   13.8448   58.2445   12.1680 N   0  0  0  0  0  0  0  0  0  0  0  0
   12.8781   57.6454   11.4557 C   0  0  0  0  0  0  0  0  0  0  0  0
   12.9546   56.3471   10.9038 N   0  0  0  0  0  0  0  0  0  0  0  0
   11.8317   58.4807   11.3553 N   0  0  0  0  0  0  0  0  0  0  0  0
   12.1566   59.6185   12.0178 C   0  0  0  0  0  0  0  0  0  0  0  0
   11.4287   60.7350   12.1900 N   0  0  0  0  0  0  0  0  0  0  0  0
   11.9560   61.7745   12.9006 C   0  0  0  0  0  0  0  0  0  0  0  0
   11.0380   63.2449   13.1459 Cl  0  0  0  0  0  0  0  0  0  0  0  0
   13.2225   61.6551   13.4251 C   0  0  0  0  0  0  0  0  0  0  0  0
   13.8775   63.0045   14.3341 Cl  0  0  0  0  0  0  0  0  0  0  0  0
   13.9956   60.5011   13.2566 C   0  0  0  0  0  0  0  0  0  0  0  0
   13.4398   59.4702   12.5369 C   0  0  0  0  0  0  0  0  0  0  0  0
   14.8714   56.1007   14.8466 C   0  0  0  0  0  0  0  0  0  0  0  0
   14.6911   54.9542   15.5827 C   0  0  0  0  0  0  0  0  0  0  0  0
  1  2  1  0
  2  3  1  0
  3  4  2  0
  4  5  1  0
  5  6  2  0
  6  7  1  0
  7  8  2  0
  7  9  2  0
  7 10  1  0
 10 11  1  0
 11 12  1  0
 11 13  2  0
 13 14  1  0
 14 15  2  0
 15 16  1  0
 16 17  1  0
 16 18  2  0
 18 19  1  0
 18 20  1  0
 20 21  2  0
  6 22  1  0
 22 23  2  0
 23  3  1  0
 21 10  1  0
 21 14  1  0
M  END
$$$$
