
     RDKit          3D

 23 26  0  0  0  0  0  0  0  0999 V2000
   28.5693   83.0331   51.5053 C   0  0  0  0  0  0  0  0  0  0  0  0
   29.9505   83.5658   51.3171 C   0  0  0  0  0  0  0  0  0  0  0  0
   30.1469   84.5259   52.3936 N   0  0  0  0  0  0  0  0  0  0  0  0
   31.0598   82.6598   51.1201 C   0  0  0  0  0  0  0  0  0  0  0  0
   30.4652   81.2599   50.8713 C   0  0  0  0  0  0  0  0  0  0  0  0
   31.7054   80.4727   50.6180 C   0  0  0  0  0  0  0  0  0  0  0  0
   32.5089   81.4194   49.7617 C   0  0  0  0  0  0  0  0  0  0  0  0
   33.9579   81.1536   49.9564 C   0  0  0  0  0  0  0  0  0  0  0  0
   34.8159   81.5579   48.7819 C   0  0  0  0  0  0  0  0  0  0  0  0
   36.2332   81.1449   48.9984 C   0  0  0  0  0  0  0  0  0  0  0  0
   36.7646   81.7358   50.2898 C   0  0  0  0  0  0  0  0  0  0  0  0
   38.1587   81.1964   50.5353 C   0  0  0  0  0  0  0  0  0  0  0  0
   38.7103   81.8416   51.7743 C   0  0  0  0  0  0  0  0  0  0  0  0
   38.9273   83.1912   51.4829 O   0  0  0  0  0  0  0  0  0  0  0  0
   37.8330   81.7000   52.9742 C   0  0  0  0  0  0  0  0  0  0  0  0
   36.3824   81.9732   52.7112 C   0  0  0  0  0  0  0  0  0  0  0  0
   35.9088   81.3147   51.4405 C   0  0  0  0  0  0  0  0  0  0  0  0
   35.9704   79.8302   51.6360 C   0  0  0  0  0  0  0  0  0  0  0  0
   34.4465   81.6957   51.2551 C   0  0  0  0  0  0  0  0  0  0  0  0
   34.2259   83.1604   51.3471 C   0  0  0  0  0  0  0  0  0  0  0  0
   33.1490   83.7357   50.5334 C   0  0  0  0  0  0  0  0  0  0  0  0
   32.0585   82.8223   50.0661 C   0  0  0  0  0  0  0  0  0  0  0  0
   31.5417   83.3915   48.7543 C   0  0  0  0  0  0  0  0  0  0  0  0
  1  2  1  0
  2  3  1  0
  2  4  1  0
  4  5  1  0
  5  6  1  0
  6  7  1  0
  7  8  1  0
  8  9  1  0
  9 10  1  0
 10 11  1  0
 11 12  1  0
 12 13  1  0
 13 14  1  0
 13 15  1  0
 15 16  1  0
 16 17  1  0
 17 18  1  0
 17 19  1  0
 19 20  1  0
 20 21  1  0
 21 22  1  0
 22 23  1  0
 22  4  1  0
 22  7  1  0
 19  8  1  0
 17 11  1  0
M  END
$$$$
