
     RDKit          3D

 25 26  0  0  0  0  0  0  0  0999 V2000
    9.0813   90.1678   63.6800 C   0  0  0  0  0  0  0  0  0  0  0  0
    8.9512   91.6849   63.5175 C   0  0  0  0  0  0  0  0  0  0  0  0
   10.2870   92.1547   63.3132 O   0  0  0  0  0  0  0  0  0  0  0  0
   10.5458   93.4818   63.1166 C   0  0  0  0  0  0  0  0  0  0  0  0
    9.7391   94.3752   63.4775 O   0  0  0  0  0  0  0  0  0  0  0  0
   11.7596   93.8607   62.4874 N   0  0  0  0  0  0  0  0  0  0  0  0
   12.3805   95.1501   62.6355 C   0  0  0  0  0  0  0  0  0  0  0  0
   11.9966   96.1042   61.5853 C   0  0  0  0  0  0  0  0  0  0  0  0
   12.3253   95.8432   60.3993 O   0  0  0  0  0  0  0  0  0  0  0  0
   11.2788   97.3056   61.8053 N   0  0  0  0  0  0  0  0  0  0  0  0
   11.1985   98.3454   60.8357 C   0  0  0  0  0  0  0  0  0  0  0  0
   10.2628   99.3569   60.9170 C   0  0  0  0  0  0  0  0  0  0  0  0
   10.1795  100.3689   59.9796 C   0  0  0  0  0  0  0  0  0  0  0  0
   11.0621  100.3959   58.8977 C   0  0  0  0  0  0  0  0  0  0  0  0
   11.2538  101.1897   57.8555 N   0  0  0  0  0  0  0  0  0  0  0  0
   12.2535  100.7319   57.1305 N   0  0  0  0  0  0  0  0  0  0  0  0
   12.7515   99.6029   57.6924 C   0  0  0  0  0  0  0  0  0  0  0  0
   13.8568   98.7986   57.1962 C   0  0  0  0  0  0  0  0  0  0  0  0
   14.4918   99.1691   56.0023 N   0  0  0  0  0  0  0  0  0  0  0  0
   14.2436   97.7895   57.8167 O   0  0  0  0  0  0  0  0  0  0  0  0
   11.9882   99.3867   58.8256 C   0  0  0  0  0  0  0  0  0  0  0  0
   12.0623   98.3804   59.7682 C   0  0  0  0  0  0  0  0  0  0  0  0
   13.8777   94.9293   62.6988 C   0  0  0  0  0  0  0  0  0  0  0  0
   14.2324   93.5846   63.2875 C   0  0  0  0  0  0  0  0  0  0  0  0
   14.5780   96.0220   63.4606 C   0  0  0  0  0  0  0  0  0  0  0  0
  1  2  1  0
  2  3  1  0
  3  4  1  0
  4  5  2  0
  4  6  1  0
  6  7  1  0
  7  8  1  0
  8  9  2  0
  8 10  1  0
 10 11  1  0
 11 12  2  0
 12 13  1  0
 13 14  2  0
 14 15  1  0
 15 16  1  0
 16 17  2  0
 17 18  1  0
 18 19  1  0
 18 20  2  0
 17 21  1  0
 21 22  2  0
  7 23  1  0
 23 24  1  0
 23 25  1  0
 22 11  1  0
 21 14  1  0
M  END
$$$$
