
     RDKit          3D

 24 27  0  0  0  0  0  0  0  0999 V2000
   14.8204   92.8545   64.6135 C   0  0  0  0  0  0  0  0  0  0  0  0
   13.4420   93.2650   64.2242 C   0  0  0  0  0  0  0  0  0  0  0  0
   12.2514   92.8393   64.6339 N   0  0  0  0  0  0  0  0  0  0  0  0
   11.2541   93.4667   64.0362 N   0  0  0  0  0  0  0  0  0  0  0  0
    9.8639   93.1818   64.3111 C   0  0  0  0  0  0  0  0  0  0  0  0
   11.7542   94.3941   63.1483 C   0  0  0  0  0  0  0  0  0  0  0  0
   11.3469   95.2685   62.3128 N   0  0  0  0  0  0  0  0  0  0  0  0
   11.9876   96.0261   61.5866 C   0  0  0  0  0  0  0  0  0  0  0  0
   11.7986   97.0075   60.6297 N   0  0  0  0  0  0  0  0  0  0  0  0
   11.1601   98.2771   60.7325 C   0  0  0  0  0  0  0  0  0  0  0  0
   11.4568   99.1300   59.5619 C   0  0  0  0  0  0  0  0  0  0  0  0
   10.6040  100.1089   59.1237 C   0  0  0  0  0  0  0  0  0  0  0  0
   10.8781  100.8945   57.9949 C   0  0  0  0  0  0  0  0  0  0  0  0
   12.0660  100.6385   57.3292 C   0  0  0  0  0  0  0  0  0  0  0  0
   12.9434   99.6610   57.7476 C   0  0  0  0  0  0  0  0  0  0  0  0
   14.2003   99.4361   56.9907 C   0  0  0  0  0  0  0  0  0  0  0  0
   14.1281  100.1718   55.7390 N   0  0  0  0  0  0  0  0  0  0  0  0
   14.5233  101.4227   55.4580 C   0  0  0  0  0  0  0  0  0  0  0  0
   14.2665  101.7203   54.1401 C   0  0  0  0  0  0  0  0  0  0  0  0
   13.6996  100.5974   53.6364 N   0  0  0  0  0  0  0  0  0  0  0  0
   13.6148   99.6663   54.5919 C   0  0  0  0  0  0  0  0  0  0  0  0
   12.6514   98.9025   58.8587 C   0  0  0  0  0  0  0  0  0  0  0  0
   13.7095   95.4729   62.1120 S   0  0  0  0  0  0  0  0  0  0  0  0
   13.1642   94.2460   63.2868 C   0  0  0  0  0  0  0  0  0  0  0  0
  1  2  1  0
  2  3  2  0
  3  4  1  0
  4  5  1  0
  4  6  1  0
  6  7  1  0
  7  8  2  0
  8  9  1  0
  9 10  1  0
 10 11  1  0
 11 12  2  0
 12 13  1  0
 13 14  2  0
 14 15  1  0
 15 16  1  0
 16 17  1  0
 17 18  1  0
 18 19  2  0
 19 20  1  0
 20 21  2  0
 15 22  2  0
  8 23  1  0
 23 24  1  0
 24  2  1  0
 24  6  2  0
 22 11  1  0
 21 17  1  0
M  END
$$$$
