
     RDKit          3D

 19 19  0  0  0  0  0  0  0  0999 V2000
   32.8364   83.1320   43.9494 C   0  0  0  0  0  0  0  0  0  0  0  0
   32.4202   82.0170   44.7676 N   0  0  0  0  0  0  0  0  0  0  0  0
   31.9048   82.2998   46.0605 C   0  0  0  0  0  0  0  0  0  0  0  0
   31.7187   83.4898   46.4086 O   0  0  0  0  0  0  0  0  0  0  0  0
   31.5711   81.2265   47.0347 C   0  0  0  0  0  0  0  0  0  0  0  0
   30.1555   80.7841   46.8859 C   0  0  0  0  0  0  0  0  0  0  0  0
   31.8927   81.6735   48.3905 N   0  0  0  0  0  0  0  0  0  0  0  0
   33.1915   81.5923   48.9237 C   0  0  0  0  0  0  0  0  0  0  0  0
   34.0649   81.1624   48.0842 O   0  0  0  0  0  0  0  0  0  0  0  0
   33.6249   81.9280   50.2600 C   0  0  0  0  0  0  0  0  0  0  0  0
   34.9330   81.6330   50.5911 C   0  0  0  0  0  0  0  0  0  0  0  0
   35.4394   81.9147   51.8389 C   0  0  0  0  0  0  0  0  0  0  0  0
   34.6503   82.4973   52.7843 C   0  0  0  0  0  0  0  0  0  0  0  0
   33.3331   82.8091   52.4928 C   0  0  0  0  0  0  0  0  0  0  0  0
   32.8442   82.5180   51.2336 C   0  0  0  0  0  0  0  0  0  0  0  0
   31.5440   82.8288   50.9546 O   0  0  0  0  0  0  0  0  0  0  0  0
   30.3622   82.3051   51.4461 C   0  0  0  0  0  0  0  0  0  0  0  0
   30.1698   82.7138   52.7789 F   0  0  0  0  0  0  0  0  0  0  0  0
   29.2609   82.7936   50.7500 F   0  0  0  0  0  0  0  0  0  0  0  0
  1  2  1  0
  2  3  1  0
  3  4  2  0
  3  5  1  0
  5  6  1  0
  5  7  1  0
  7  8  1  0
  8  9  2  0
  8 10  1  0
 10 11  2  0
 11 12  1  0
 12 13  2  0
 13 14  1  0
 14 15  2  0
 15 16  1  0
 16 17  1  0
 17 18  1  0
 17 19  1  0
 15 10  1  0
M  END
$$$$
