
     RDKit          3D

 32 36  0  0  0  0  0  0  0  0999 V2000
   13.9109   60.6059   14.3918 C   0  0  0  0  0  0  0  0  0  0  0  0
   14.5740   59.3997   14.9777 C   0  0  0  0  0  0  0  0  0  0  0  0
   14.8646   59.4192   16.1880 O   0  0  0  0  0  0  0  0  0  0  0  0
   14.8771   58.2505   14.2060 N   0  0  0  0  0  0  0  0  0  0  0  0
   14.3208   58.1019   12.8996 C   0  0  0  0  0  0  0  0  0  0  0  0
   15.1715   57.3236   11.9331 C   0  0  0  0  0  0  0  0  0  0  0  0
   15.9298   56.2081   12.6040 C   0  0  0  0  0  0  0  0  0  0  0  0
   16.8202   55.5005   11.6770 C   0  0  0  0  0  0  0  0  0  0  0  0
   16.9821   56.0357   10.4133 C   0  0  0  0  0  0  0  0  0  0  0  0
   17.8126   55.3960    9.5223 C   0  0  0  0  0  0  0  0  0  0  0  0
   18.4523   54.2383    9.9341 C   0  0  0  0  0  0  0  0  0  0  0  0
   18.2913   53.7237   11.1612 N   0  0  0  0  0  0  0  0  0  0  0  0
   17.4907   54.3273   12.0419 C   0  0  0  0  0  0  0  0  0  0  0  0
   17.2832   53.8538   13.3098 O   0  0  0  0  0  0  0  0  0  0  0  0
   17.0549   52.4848   13.5847 C   0  0  0  0  0  0  0  0  0  0  0  0
   17.8657   51.9756   14.7461 C   0  0  0  0  0  0  0  0  0  0  0  0
   17.2259   52.2193   16.0839 C   0  0  0  0  0  0  0  0  0  0  0  0
   15.7983   51.8800   16.0748 N   0  0  0  0  0  0  0  0  0  0  0  0
   15.2686   50.9329   16.9715 C   0  0  0  0  0  0  0  0  0  0  0  0
   13.9305   50.6785   17.0449 C   0  0  0  0  0  0  0  0  0  0  0  0
   13.4884   49.7297   17.9533 C   0  0  0  0  0  0  0  0  0  0  0  0
   14.3568   49.0404   18.7793 C   0  0  0  0  0  0  0  0  0  0  0  0
   13.9314   48.0882   19.6926 C   0  0  0  0  0  0  0  0  0  0  0  0
   14.8088   47.4156   20.5018 C   0  0  0  0  0  0  0  0  0  0  0  0
   16.1568   47.7053   20.3938 C   0  0  0  0  0  0  0  0  0  0  0  0
   16.5780   48.6635   19.4737 C   0  0  0  0  0  0  0  0  0  0  0  0
   15.7121   49.3397   18.6624 C   0  0  0  0  0  0  0  0  0  0  0  0
   16.1149   50.2645   17.7732 N   0  0  0  0  0  0  0  0  0  0  0  0
   15.0404   52.6059   15.0750 C   0  0  0  0  0  0  0  0  0  0  0  0
   15.5824   52.1808   13.7289 C   0  0  0  0  0  0  0  0  0  0  0  0
   16.7592   56.8621   13.7136 C   0  0  0  0  0  0  0  0  0  0  0  0
   15.7575   57.2611   14.7986 C   0  0  0  0  0  0  0  0  0  0  0  0
  1  2  1  0
  2  3  2  0
  2  4  1  0
  4  5  1  0
  5  6  1  0
  6  7  1  0
  7  8  1  0
  8  9  2  0
  9 10  1  0
 10 11  2  0
 11 12  1  0
 12 13  2  0
 13 14  1  0
 14 15  1  0
 15 16  1  0
 16 17  1  0
 17 18  1  0
 18 19  1  0
 19 20  2  0
 20 21  1  0
 21 22  2  0
 22 23  1  0
 23 24  2  0
 24 25  1  0
 25 26  2  0
 26 27  1  0
 27 28  2  0
 18 29  1  0
 29 30  1  0
  7 31  1  0
 31 32  1  0
 32  4  1  0
 13  8  1  0
 30 15  1  0
 28 19  1  0
 27 22  1  0
M  END
$$$$
