
     RDKit          3D

 25 28  0  0  0  0  0  0  0  0999 V2000
   10.6513   90.6143   63.5485 N   0  0  0  0  0  0  0  0  0  0  0  0
   10.7151   91.6723   63.1198 C   0  0  0  0  0  0  0  0  0  0  0  0
   10.8076   93.0466   62.5443 C   0  0  0  0  0  0  0  0  0  0  0  0
   12.0562   93.7105   63.0486 C   0  0  0  0  0  0  0  0  0  0  0  0
   12.0964   95.1834   62.8460 C   0  0  0  0  0  0  0  0  0  0  0  0
   13.3830   95.8747   62.8703 C   0  0  0  0  0  0  0  0  0  0  0  0
   14.5843   95.3830   63.5025 C   0  0  0  0  0  0  0  0  0  0  0  0
   15.6200   96.3801   64.0274 C   0  0  0  0  0  0  0  0  0  0  0  0
   15.9430   95.3722   62.9539 C   0  0  0  0  0  0  0  0  0  0  0  0
   11.0237   95.8304   63.7086 C   0  0  0  0  0  0  0  0  0  0  0  0
    9.9216   96.4729   62.8975 C   0  0  0  0  0  0  0  0  0  0  0  0
   10.5404   97.5120   61.9855 C   0  0  0  0  0  0  0  0  0  0  0  0
   11.3896   96.7656   61.0811 N   0  0  0  0  0  0  0  0  0  0  0  0
   11.9699   97.4114   59.9833 C   0  0  0  0  0  0  0  0  0  0  0  0
   12.7607   96.7679   59.2413 O   0  0  0  0  0  0  0  0  0  0  0  0
   11.7023   98.8111   59.6484 C   0  0  0  0  0  0  0  0  0  0  0  0
   11.4181   99.7771   60.5870 C   0  0  0  0  0  0  0  0  0  0  0  0
   11.1713  101.0902   60.2113 C   0  0  0  0  0  0  0  0  0  0  0  0
   11.2110  101.4408   58.8620 C   0  0  0  0  0  0  0  0  0  0  0  0
   11.4933  100.4861   57.9201 C   0  0  0  0  0  0  0  0  0  0  0  0
   11.5889  100.5647   56.5968 N   0  0  0  0  0  0  0  0  0  0  0  0
   11.8906   99.3450   56.0929 C   0  0  0  0  0  0  0  0  0  0  0  0
   11.9850   98.4769   57.1516 C   0  0  0  0  0  0  0  0  0  0  0  0
   11.7342   99.1899   58.3226 C   0  0  0  0  0  0  0  0  0  0  0  0
   11.5787   95.3621   61.3944 C   0  0  0  0  0  0  0  0  0  0  0  0
  1  2  3  0
  2  3  1  0
  3  4  1  0
  4  5  1  0
  5  6  1  0
  6  7  1  0
  7  8  1  0
  8  9  1  0
  5 10  1  0
 10 11  1  0
 11 12  1  0
 12 13  1  0
 13 14  1  0
 14 15  2  0
 14 16  1  0
 16 17  2  0
 17 18  1  0
 18 19  2  0
 19 20  1  0
 20 21  1  0
 21 22  1  0
 22 23  2  0
 23 24  1  0
 13 25  1  0
 25  5  1  0
  9  7  1  0
 24 16  1  0
 24 20  2  0
M  END
$$$$
