
     RDKit          3D

 38 43  0  0  0  0  0  0  0  0999 V2000
   17.6543   91.9035   63.5675 C   0  0  0  0  0  0  0  0  0  0  0  0
   16.4136   92.7393   63.6027 C   0  0  0  0  0  0  0  0  0  0  0  0
   16.4440   94.0956   63.3618 C   0  0  0  0  0  0  0  0  0  0  0  0
   15.3225   94.8914   63.3870 C   0  0  0  0  0  0  0  0  0  0  0  0
   14.0806   94.3186   63.6685 C   0  0  0  0  0  0  0  0  0  0  0  0
   12.8650   95.1585   63.6966 C   0  0  0  0  0  0  0  0  0  0  0  0
   13.0832   96.5426   63.1517 C   0  0  0  0  0  0  0  0  0  0  0  0
   12.9563   96.3599   61.7343 N   0  0  0  0  0  0  0  0  0  0  0  0
   12.2713   95.1489   61.4488 C   0  0  0  0  0  0  0  0  0  0  0  0
   12.0614   94.5635   60.3577 O   0  0  0  0  0  0  0  0  0  0  0  0
   11.8040   94.6414   62.7568 C   0  0  0  0  0  0  0  0  0  0  0  0
   10.4810   95.3371   63.0299 C   0  0  0  0  0  0  0  0  0  0  0  0
    9.4075   94.2567   62.7448 C   0  0  0  0  0  0  0  0  0  0  0  0
    9.4705   93.3842   63.8429 N   0  0  0  0  0  0  0  0  0  0  0  0
    8.3289   92.5482   64.1306 C   0  0  0  0  0  0  0  0  0  0  0  0
    7.2041   92.8008   63.2403 C   0  0  0  0  0  0  0  0  0  0  0  0
    6.5848   93.9229   63.4582 O   0  0  0  0  0  0  0  0  0  0  0  0
    6.6679   92.0507   62.1863 N   0  0  0  0  0  0  0  0  0  0  0  0
    5.4287   92.5901   61.5678 C   0  0  0  0  0  0  0  0  0  0  0  0
    4.3776   91.4949   61.5335 C   0  0  0  0  0  0  0  0  0  0  0  0
    4.8918   90.3131   60.8885 N   0  0  0  0  0  0  0  0  0  0  0  0
    4.0092   89.2301   60.6323 C   0  0  0  0  0  0  0  0  0  0  0  0
    2.7009   89.4023   60.8393 N   0  0  0  0  0  0  0  0  0  0  0  0
    1.7672   88.4758   60.6389 C   0  0  0  0  0  0  0  0  0  0  0  0
    2.1630   87.2401   60.1837 C   0  0  0  0  0  0  0  0  0  0  0  0
    3.5226   87.0644   59.9698 C   0  0  0  0  0  0  0  0  0  0  0  0
    4.4298   88.0351   60.1878 N   0  0  0  0  0  0  0  0  0  0  0  0
    6.2830   90.2928   60.5263 C   0  0  0  0  0  0  0  0  0  0  0  0
    7.1939   90.8447   61.6285 C   0  0  0  0  0  0  0  0  0  0  0  0
    8.8062   91.1244   64.0107 C   0  0  0  0  0  0  0  0  0  0  0  0
   10.0885   90.9713   64.8707 C   0  0  0  0  0  0  0  0  0  0  0  0
    9.5667   91.0095   66.3162 C   0  0  0  0  0  0  0  0  0  0  0  0
    8.9678   92.3541   66.5469 C   0  0  0  0  0  0  0  0  0  0  0  0
    7.8805   92.7379   65.5701 C   0  0  0  0  0  0  0  0  0  0  0  0
   10.6882   92.6096   63.7660 C   0  0  0  0  0  0  0  0  0  0  0  0
   11.6722   93.1501   62.7837 C   0  0  0  0  0  0  0  0  0  0  0  0
   14.0593   92.9682   63.9062 C   0  0  0  0  0  0  0  0  0  0  0  0
   15.2005   92.1769   63.8776 C   0  0  0  0  0  0  0  0  0  0  0  0
  1  2  1  0
  2  3  2  0
  3  4  1  0
  4  5  2  0
  5  6  1  0
  6  7  1  0
  7  8  1  0
  8  9  1  0
  9 10  2  0
  9 11  1  0
 11 12  1  0
 12 13  1  0
 13 14  1  0
 14 15  1  0
 15 16  1  0
 16 17  2  0
 16 18  1  0
 18 19  1  0
 19 20  1  0
 20 21  1  0
 21 22  1  0
 22 23  2  0
 23 24  1  0
 24 25  2  0
 25 26  1  0
 26 27  2  0
 21 28  1  0
 28 29  1  0
 15 30  1  0
 30 31  1  0
 31 32  1  0
 32 33  1  0
 33 34  1  0
 14 35  1  0
 35 36  1  0
  5 37  1  0
 37 38  2  0
 38  2  1  0
 11  6  1  0
 34 15  1  0
 36 11  1  0
 29 18  1  0
 27 22  1  0
M  END
$$$$
