
     RDKit          3D

 28 30  0  0  0  0  0  0  0  0999 V2000
   12.4650   49.8310   16.2109 C   0  0  0  0  0  0  0  0  0  0  0  0
   13.3639   50.0066   17.2664 O   0  0  0  0  0  0  0  0  0  0  0  0
   14.7172   50.1023   16.9608 C   0  0  0  0  0  0  0  0  0  0  0  0
   15.1876   50.9597   15.9819 C   0  0  0  0  0  0  0  0  0  0  0  0
   16.5217   51.0536   15.6845 C   0  0  0  0  0  0  0  0  0  0  0  0
   17.0756   51.9442   14.6606 C   0  0  0  0  0  0  0  0  0  0  0  0
   18.0889   51.5491   14.0122 O   0  0  0  0  0  0  0  0  0  0  0  0
   16.4959   53.2110   14.4055 N   0  0  0  0  0  0  0  0  0  0  0  0
   16.8289   53.8926   13.1956 C   0  0  0  0  0  0  0  0  0  0  0  0
   15.6767   54.7712   12.7916 C   0  0  0  0  0  0  0  0  0  0  0  0
   15.4255   55.6992   13.8612 N   0  0  0  0  0  0  0  0  0  0  0  0
   15.1485   57.0480   13.5479 C   0  0  0  0  0  0  0  0  0  0  0  0
   14.4730   57.7322   14.5220 N   0  0  0  0  0  0  0  0  0  0  0  0
   14.1153   59.0143   14.3540 C   0  0  0  0  0  0  0  0  0  0  0  0
   14.4435   59.6361   13.1713 C   0  0  0  0  0  0  0  0  0  0  0  0
   15.1266   58.9643   12.1723 C   0  0  0  0  0  0  0  0  0  0  0  0
   15.4756   57.6569   12.3790 C   0  0  0  0  0  0  0  0  0  0  0  0
   16.2152   56.8953   11.3888 C   0  0  0  0  0  0  0  0  0  0  0  0
   16.8049   56.2969   10.6027 N   0  0  0  0  0  0  0  0  0  0  0  0
   15.4629   55.2771   15.2222 C   0  0  0  0  0  0  0  0  0  0  0  0
   15.5990   53.7773   15.3555 C   0  0  0  0  0  0  0  0  0  0  0  0
   17.3902   50.2348   16.4229 C   0  0  0  0  0  0  0  0  0  0  0  0
   16.9034   49.3946   17.3849 C   0  0  0  0  0  0  0  0  0  0  0  0
   17.7800   48.5887   18.1073 O   0  0  0  0  0  0  0  0  0  0  0  0
   19.1871   48.6360   17.8635 C   0  0  0  0  0  0  0  0  0  0  0  0
   15.5625   49.2960   17.6896 C   0  0  0  0  0  0  0  0  0  0  0  0
   15.1502   48.4179   18.6821 O   0  0  0  0  0  0  0  0  0  0  0  0
   15.2792   47.0217   18.3678 C   0  0  0  0  0  0  0  0  0  0  0  0
  1  2  1  0
  2  3  1  0
  3  4  2  0
  4  5  1  0
  5  6  1  0
  6  7  2  0
  6  8  1  0
  8  9  1  0
  9 10  1  0
 10 11  1  0
 11 12  1  0
 12 13  2  0
 13 14  1  0
 14 15  2  0
 15 16  1  0
 16 17  2  0
 17 18  1  0
 18 19  3  0
 11 20  1  0
 20 21  1  0
  5 22  2  0
 22 23  1  0
 23 24  1  0
 24 25  1  0
 23 26  2  0
 26 27  1  0
 27 28  1  0
 26  3  1  0
 21  8  1  0
 17 12  1  0
M  END
$$$$
