
     RDKit          3D

 22 24  0  0  0  0  0  0  0  0999 V2000
   13.8808   99.1712   58.0305 C   0  0  0  0  0  0  0  0  0  0  0  0
   13.8962   98.7720   56.5650 C   0  0  0  0  0  0  0  0  0  0  0  0
   13.6461   99.8865   55.6909 N   0  0  0  0  0  0  0  0  0  0  0  0
   12.7884  100.9539   56.2228 C   0  0  0  0  0  0  0  0  0  0  0  0
   12.1992  100.7376   57.5376 C   0  0  0  0  0  0  0  0  0  0  0  0
   11.4916  101.7074   58.2510 C   0  0  0  0  0  0  0  0  0  0  0  0
   10.9755  101.4614   59.5046 C   0  0  0  0  0  0  0  0  0  0  0  0
   11.1172  100.2581   60.1384 C   0  0  0  0  0  0  0  0  0  0  0  0
   11.8088   99.2805   59.4603 C   0  0  0  0  0  0  0  0  0  0  0  0
   12.3421   99.5111   58.1850 C   0  0  0  0  0  0  0  0  0  0  0  0
   11.8065   98.1556   60.3085 O   0  0  0  0  0  0  0  0  0  0  0  0
   11.5714   98.6508   61.6249 C   0  0  0  0  0  0  0  0  0  0  0  0
   10.6945   99.7682   61.3912 O   0  0  0  0  0  0  0  0  0  0  0  0
   14.1011   99.9797   54.3615 C   0  0  0  0  0  0  0  0  0  0  0  0
   13.9439  101.1154   53.7859 O   0  0  0  0  0  0  0  0  0  0  0  0
   14.7424   98.9737   53.5174 C   0  0  0  0  0  0  0  0  0  0  0  0
   14.4963   99.0823   51.7617 S   0  0  0  0  0  0  0  0  0  0  0  0
   15.6549  100.0714   50.8717 C   0  0  0  0  0  0  0  0  0  0  0  0
   16.2157   99.8491   49.6926 N   0  0  0  0  0  0  0  0  0  0  0  0
   17.0400  100.8763   49.3899 C   0  0  0  0  0  0  0  0  0  0  0  0
   16.9646  101.7366   50.4272 N   0  0  0  0  0  0  0  0  0  0  0  0
   16.1405  101.2748   51.3255 N   0  0  0  0  0  0  0  0  0  0  0  0
  1  2  1  0
  2  3  1  0
  3  4  1  0
  4  5  1  0
  5  6  2  0
  6  7  1  0
  7  8  2  0
  8  9  1  0
  9 10  2  0
  9 11  1  0
 11 12  1  0
 12 13  1  0
  3 14  1  0
 14 15  2  0
 14 16  1  0
 16 17  1  0
 17 18  1  0
 18 19  2  0
 19 20  1  0
 20 21  2  0
 21 22  1  0
 10  5  1  0
 22 18  1  0
 13  8  1  0
M  END
$$$$
