
     RDKit          3D

 21 23  0  0  0  0  0  0  0  0999 V2000
   14.0204   92.1464   65.8968 C   0  0  0  0  0  0  0  0  0  0  0  0
   13.7465   92.8376   64.5984 C   0  0  0  0  0  0  0  0  0  0  0  0
   14.4881   92.5305   63.4757 C   0  0  0  0  0  0  0  0  0  0  0  0
   14.2141   93.1832   62.2917 C   0  0  0  0  0  0  0  0  0  0  0  0
   13.2240   94.1354   62.1833 C   0  0  0  0  0  0  0  0  0  0  0  0
   12.7931   94.8852   61.1419 N   0  0  0  0  0  0  0  0  0  0  0  0
   11.7887   95.6695   61.5708 C   0  0  0  0  0  0  0  0  0  0  0  0
   11.0299   96.6417   60.7690 C   0  0  0  0  0  0  0  0  0  0  0  0
   10.4502   97.6132   61.3185 O   0  0  0  0  0  0  0  0  0  0  0  0
   10.9455   96.4911   59.3651 N   0  0  0  0  0  0  0  0  0  0  0  0
   10.2657   97.4933   58.6031 C   0  0  0  0  0  0  0  0  0  0  0  0
   11.0446   97.9115   57.3704 C   0  0  0  0  0  0  0  0  0  0  0  0
   11.7631   99.1826   57.6450 C   0  0  0  0  0  0  0  0  0  0  0  0
   11.2214  100.2898   58.3019 C   0  0  0  0  0  0  0  0  0  0  0  0
   12.2018  101.2542   58.3546 C   0  0  0  0  0  0  0  0  0  0  0  0
   13.3200  100.8038   57.7662 N   0  0  0  0  0  0  0  0  0  0  0  0
   14.5771  101.5440   57.6261 C   0  0  0  0  0  0  0  0  0  0  0  0
   13.0563   99.5507   57.3364 C   0  0  0  0  0  0  0  0  0  0  0  0
   11.6312   95.3655   62.9043 C   0  0  0  0  0  0  0  0  0  0  0  0
   12.5071   94.4233   63.2958 N   0  0  0  0  0  0  0  0  0  0  0  0
   12.7639   93.7905   64.4678 C   0  0  0  0  0  0  0  0  0  0  0  0
  1  2  1  0
  2  3  1  0
  3  4  2  0
  4  5  1  0
  5  6  2  0
  6  7  1  0
  7  8  1  0
  8  9  2  0
  8 10  1  0
 10 11  1  0
 11 12  1  0
 12 13  1  0
 13 14  1  0
 14 15  2  0
 15 16  1  0
 16 17  1  0
 16 18  1  0
  7 19  2  0
 19 20  1  0
 20 21  1  0
 21  2  2  0
 20  5  1  0
 18 13  2  0
M  END
$$$$
