
     RDKit          3D

 19 20  0  0  0  0  0  0  0  0999 V2000
   32.5272   81.5587   45.9961 C   0  0  0  0  0  0  0  0  0  0  0  0
   31.8093   81.7624   47.2649 N   0  0  0  0  0  0  0  0  0  0  0  0
   32.6378   81.8301   48.4227 C   0  0  0  0  0  0  0  0  0  0  0  0
   33.8923   81.6894   48.3433 O   0  0  0  0  0  0  0  0  0  0  0  0
   32.0588   82.0636   49.7307 C   0  0  0  0  0  0  0  0  0  0  0  0
   30.7099   82.2314   49.9224 C   0  0  0  0  0  0  0  0  0  0  0  0
   30.1759   82.4557   51.1972 C   0  0  0  0  0  0  0  0  0  0  0  0
   28.2927   82.6850   51.4272 Br  0  0  0  0  0  0  0  0  0  0  0  0
   31.0242   82.5081   52.2748 C   0  0  0  0  0  0  0  0  0  0  0  0
   32.3770   82.3412   52.0929 C   0  0  0  0  0  0  0  0  0  0  0  0
   32.8736   82.1231   50.8355 C   0  0  0  0  0  0  0  0  0  0  0  0
   34.2913   81.9507   50.6640 N   0  0  0  0  0  0  0  0  0  0  0  0
   35.1509   82.1004   51.7868 C   0  0  0  0  0  0  0  0  0  0  0  0
   34.7122   82.3314   52.9391 O   0  0  0  0  0  0  0  0  0  0  0  0
   36.6017   81.9778   51.5749 C   0  0  0  0  0  0  0  0  0  0  0  0
   37.5672   82.0178   52.5641 C   0  0  0  0  0  0  0  0  0  0  0  0
   38.8116   81.8660   51.9491 C   0  0  0  0  0  0  0  0  0  0  0  0
   38.5206   81.7416   50.6051 C   0  0  0  0  0  0  0  0  0  0  0  0
   37.2276   81.8132   50.4436 O   0  0  0  0  0  0  0  0  0  0  0  0
  1  2  1  0
  2  3  1  0
  3  4  2  0
  3  5  1  0
  5  6  2  0
  6  7  1  0
  7  8  1  0
  7  9  2  0
  9 10  1  0
 10 11  2  0
 11 12  1  0
 12 13  1  0
 13 14  2  0
 13 15  1  0
 15 16  2  0
 16 17  1  0
 17 18  2  0
 18 19  1  0
 11  5  1  0
 19 15  1  0
M  END
$$$$
