
     RDKit          3D

 22 23  0  0  0  0  0  0  0  0999 V2000
   17.8272   49.4862   16.5512 C   0  0  0  0  0  0  0  0  0  0  0  0
   16.4631   49.8328   17.1720 C   0  0  0  0  0  0  0  0  0  0  0  0
   15.9437   48.5775   17.9002 C   0  0  0  0  0  0  0  0  0  0  0  0
   14.8759   48.9745   18.6697 O   0  0  0  0  0  0  0  0  0  0  0  0
   14.6058   48.1750   19.7421 C   0  0  0  0  0  0  0  0  0  0  0  0
   15.7198   48.0336   20.7282 C   0  0  0  0  0  0  0  0  0  0  0  0
   14.1123   46.7885   19.3111 C   0  0  0  0  0  0  0  0  0  0  0  0
   13.4252   48.8070   20.4914 C   0  0  0  0  0  0  0  0  0  0  0  0
   15.5647   50.2807   16.1772 N   0  0  0  0  0  0  0  0  0  0  0  0
   14.2681   49.5855   15.9907 C   0  0  0  0  0  0  0  0  0  0  0  0
   15.8500   51.3834   15.3342 C   0  0  0  0  0  0  0  0  0  0  0  0
   17.0418   51.8569   15.4412 O   0  0  0  0  0  0  0  0  0  0  0  0
   14.9897   51.9946   14.4203 N   0  0  0  0  0  0  0  0  0  0  0  0
   15.2840   53.0826   13.5480 C   0  0  0  0  0  0  0  0  0  0  0  0
   14.2110   53.8757   13.0957 C   0  0  0  0  0  0  0  0  0  0  0  0
   14.3816   54.9467   12.2540 C   0  0  0  0  0  0  0  0  0  0  0  0
   15.6298   55.2874   11.8162 C   0  0  0  0  0  0  0  0  0  0  0  0
   16.6782   54.5205   12.2522 C   0  0  0  0  0  0  0  0  0  0  0  0
   16.5289   53.4317   13.1044 C   0  0  0  0  0  0  0  0  0  0  0  0
   17.9009   55.0875   11.6449 C   0  0  0  0  0  0  0  0  0  0  0  0
   17.4763   55.9231   10.6181 O   0  0  0  0  0  0  0  0  0  0  0  0
   16.1872   56.3287   10.9419 C   0  0  0  0  0  0  0  0  0  0  0  0
  1  2  1  0
  2  3  1  0
  3  4  1  0
  4  5  1  0
  5  6  1  0
  5  7  1  0
  5  8  1  0
  2  9  1  0
  9 10  1  0
  9 11  1  0
 11 12  2  0
 11 13  1  0
 13 14  1  0
 14 15  2  0
 15 16  1  0
 16 17  2  0
 17 18  1  0
 18 19  2  0
 18 20  1  0
 20 21  1  0
 21 22  1  0
 19 14  1  0
 22 17  1  0
M  END
$$$$
