
     RDKit          3D

 27 29  0  0  0  0  0  0  0  0999 V2000
   37.5593   83.5782   50.9030 C   0  0  0  0  0  0  0  0  0  0  0  0
   37.9434   83.3621   52.2622 N   0  0  0  0  0  0  0  0  0  0  0  0
   38.5232   84.4515   52.9995 C   0  0  0  0  0  0  0  0  0  0  0  0
   37.7708   82.1306   52.8799 C   0  0  0  0  0  0  0  0  0  0  0  0
   38.9050   81.4367   53.3249 C   0  0  0  0  0  0  0  0  0  0  0  0
   38.8027   80.2135   53.9370 C   0  0  0  0  0  0  0  0  0  0  0  0
   37.5447   79.6758   54.1068 C   0  0  0  0  0  0  0  0  0  0  0  0
   36.4116   80.3578   53.6681 C   0  0  0  0  0  0  0  0  0  0  0  0
   36.5438   81.5898   53.0541 C   0  0  0  0  0  0  0  0  0  0  0  0
   35.3340   82.2995   52.6112 C   0  0  0  0  0  0  0  0  0  0  0  0
   34.5302   81.5836   51.2580 S   0  0  0  0  0  3  0  0  0  0  0  0
   35.5820   81.5497   49.9498 O   0  0  0  0  0  1  0  0  0  0  0  0
   33.0653   82.3590   50.7486 C   0  0  0  0  0  0  0  0  0  0  0  0
   32.6388   82.1846   49.3646 C   0  0  0  0  0  0  0  0  0  0  0  0
   32.4258   80.9556   48.7904 C   0  0  0  0  0  0  0  0  0  0  0  0
   32.0369   80.7873   47.4834 C   0  0  0  0  0  0  0  0  0  0  0  0
   31.8435   81.8796   46.6867 C   0  0  0  0  0  0  0  0  0  0  0  0
   31.4531   81.7472   45.3683 F   0  0  0  0  0  0  0  0  0  0  0  0
   32.0461   83.1287   47.2227 C   0  0  0  0  0  0  0  0  0  0  0  0
   32.4429   83.2768   48.5590 C   0  0  0  0  0  0  0  0  0  0  0  0
   31.9433   82.3431   51.7419 C   0  0  0  0  0  0  0  0  0  0  0  0
   30.6383   82.0422   51.4224 C   0  0  0  0  0  0  0  0  0  0  0  0
   29.5945   82.0226   52.3299 C   0  0  0  0  0  0  0  0  0  0  0  0
   29.8814   82.3255   53.6450 C   0  0  0  0  0  0  0  0  0  0  0  0
   28.8859   82.3220   54.5915 F   0  0  0  0  0  0  0  0  0  0  0  0
   31.1526   82.6338   54.0348 C   0  0  0  0  0  0  0  0  0  0  0  0
   32.1551   82.6400   53.0973 C   0  0  0  0  0  0  0  0  0  0  0  0
  1  2  1  0
  2  3  1  0
  2  4  1  0
  4  5  2  0
  5  6  1  0
  6  7  2  0
  7  8  1  0
  8  9  2  0
  9 10  1  0
 10 11  1  0
 11 12  1  0
 11 13  1  0
 13 14  1  0
 14 15  2  0
 15 16  1  0
 16 17  2  0
 17 18  1  0
 17 19  1  0
 19 20  2  0
 13 21  1  0
 21 22  2  0
 22 23  1  0
 23 24  2  0
 24 25  1  0
 24 26  1  0
 26 27  2  0
  9  4  1  0
 20 14  1  0
 27 21  1  0
M  CHG  2  11   1  12  -1
M  END
$$$$
