
     RDKit          3D

 27 29  0  0  0  0  0  0  0  0999 V2000
   15.9769   59.2368   12.1440 C   0  0  0  0  0  0  0  0  0  0  0  0
   14.9252   58.2211   12.4346 C   0  0  0  0  0  0  0  0  0  0  0  0
   13.6148   58.6118   12.4426 C   0  0  0  0  0  0  0  0  0  0  0  0
   12.6337   57.6862   12.7085 C   0  0  0  0  0  0  0  0  0  0  0  0
   10.7851   58.1652   12.7350 Br  0  0  0  0  0  0  0  0  0  0  0  0
   13.0166   56.3909   12.9581 C   0  0  0  0  0  0  0  0  0  0  0  0
   14.3572   55.9919   12.9499 C   0  0  0  0  0  0  0  0  0  0  0  0
   15.3434   56.8976   12.6879 C   0  0  0  0  0  0  0  0  0  0  0  0
   16.7172   56.6315   12.6494 N   0  0  0  0  0  0  0  0  0  0  0  0
   17.3184   55.4130   13.0435 C   0  0  0  0  0  0  0  0  0  0  0  0
   18.6242   55.1393   13.0451 N   0  0  0  0  0  0  0  0  0  0  0  0
   19.1998   53.9948   13.4145 C   0  0  0  0  0  0  0  0  0  0  0  0
   20.6103   53.7870   13.3846 N   0  0  0  0  0  0  0  0  0  0  0  0
   18.3600   53.0027   13.8341 N   0  0  0  0  0  0  0  0  0  0  0  0
   17.0356   53.2131   13.8567 C   0  0  0  0  0  0  0  0  0  0  0  0
   16.1419   52.1271   14.3141 C   0  0  0  0  0  0  0  0  0  0  0  0
   15.0159   52.6685   14.9971 N   0  0  0  0  0  0  0  0  0  0  0  0
   14.7983   51.9712   16.2394 C   0  0  0  0  0  0  0  0  0  0  0  0
   16.0056   51.1076   16.5726 C   0  0  0  0  0  0  0  0  0  0  0  0
   15.6179   50.2111   17.6805 C   0  0  0  0  0  0  0  0  0  0  0  0
   16.5627   49.7705   18.5803 C   0  0  0  0  0  0  0  0  0  0  0  0
   16.2401   48.9311   19.6305 C   0  0  0  0  0  0  0  0  0  0  0  0
   14.9371   48.5185   19.7887 C   0  0  0  0  0  0  0  0  0  0  0  0
   13.9604   48.9506   18.8905 C   0  0  0  0  0  0  0  0  0  0  0  0
   12.2874   48.4463   19.0588 Cl  0  0  0  0  0  0  0  0  0  0  0  0
   14.3218   49.7940   17.8470 C   0  0  0  0  0  0  0  0  0  0  0  0
   16.5323   54.3777   13.4747 N   0  0  0  0  0  0  0  0  0  0  0  0
  1  2  1  0
  2  3  2  0
  3  4  1  0
  4  5  1  0
  4  6  2  0
  6  7  1  0
  7  8  2  0
  8  9  1  0
  9 10  1  0
 10 11  2  0
 11 12  1  0
 12 13  1  0
 12 14  2  0
 14 15  1  0
 15 16  1  0
 16 17  1  0
 17 18  1  0
 18 19  1  0
 19 20  1  0
 20 21  2  0
 21 22  1  0
 22 23  2  0
 23 24  1  0
 24 25  1  0
 24 26  2  0
 15 27  2  0
  8  2  1  0
 27 10  1  0
 26 20  1  0
M  END
$$$$
