
     RDKit          3D

 19 19  0  0  0  0  0  0  0  0999 V2000
   13.1544   90.9355   65.7675 C   0  0  0  0  0  0  0  0  0  0  0  0
   11.8175   91.6014   66.0108 C   0  0  0  0  0  0  0  0  0  0  0  0
   11.6857   91.8872   67.4567 C   0  0  0  0  0  0  0  0  0  0  0  0
   11.6480   92.7606   65.1005 C   0  0  0  0  0  0  0  0  0  0  0  0
   10.2299   92.9592   64.6265 C   0  0  0  0  0  0  0  0  0  0  0  0
    9.6454   94.0446   65.3909 N   0  0  0  0  0  0  0  0  0  0  0  0
   10.1712   93.4329   62.8774 P   0  0  0  0  0  5  0  0  0  0  0  0
    8.6856   94.1199   62.4760 O   0  0  0  0  0  0  0  0  0  0  0  0
   10.3394   92.0335   61.9144 O   0  0  0  0  0  0  0  0  0  0  0  0
   11.4096   94.4033   62.4884 C   0  0  0  0  0  0  0  0  0  0  0  0
   11.0841   95.6647   61.8840 C   0  0  0  0  0  0  0  0  0  0  0  0
   10.8254   96.6893   61.4087 N   0  0  0  0  0  0  0  0  0  0  0  0
   12.8064   94.0563   62.7213 C   0  0  0  0  0  0  0  0  0  0  0  0
   13.2519   92.7749   62.4429 C   0  0  0  0  0  0  0  0  0  0  0  0
   14.5664   92.4021   62.6481 C   0  0  0  0  0  0  0  0  0  0  0  0
   15.4878   93.2993   63.1410 C   0  0  0  0  0  0  0  0  0  0  0  0
   15.0631   94.5833   63.4252 C   0  0  0  0  0  0  0  0  0  0  0  0
   16.2424   95.7137   64.0506 Cl  0  0  0  0  0  0  0  0  0  0  0  0
   13.7381   94.9428   63.2134 C   0  0  0  0  0  0  0  0  0  0  0  0
  1  2  1  0
  2  3  1  0
  2  4  1  0
  4  5  1  0
  5  6  1  0
  5  7  1  0
  7  8  1  0
  7  9  1  0
  7 10  2  0
 10 11  1  0
 11 12  3  0
 10 13  1  0
 13 14  2  0
 14 15  1  0
 15 16  2  0
 16 17  1  0
 17 18  1  0
 17 19  2  0
 19 13  1  0
M  END
$$$$
