
     RDKit          3D

 23 25  0  0  0  0  0  0  0  0999 V2000
    9.3312  100.1636   59.7154 C   0  0  0  0  0  0  0  0  0  0  0  0
   10.5504  100.1464   58.8698 C   0  0  0  0  0  0  0  0  0  0  0  0
   10.7341  101.1074   57.8923 C   0  0  0  0  0  0  0  0  0  0  0  0
   11.9115  100.8202   57.2464 C   0  0  0  0  0  0  0  0  0  0  0  0
   12.5621  101.4538   56.1935 C   0  0  0  0  0  0  0  0  0  0  0  0
   13.7150  100.9724   55.7473 N   0  0  0  0  0  4  0  0  0  0  0  0
   14.3863  101.5892   54.6904 O   0  0  0  0  0  1  0  0  0  0  0  0
   14.2070   99.8834   56.3446 C   0  0  0  0  0  0  0  0  0  0  0  0
   15.4492   99.4519   55.8669 C   0  0  0  0  0  0  0  0  0  0  0  0
   16.0430   98.3655   56.4645 C   0  0  0  0  0  0  0  0  0  0  0  0
   15.4455   97.7093   57.5082 C   0  0  0  0  0  0  0  0  0  0  0  0
   14.1997   98.1360   57.9915 C   0  0  0  0  0  0  0  0  0  0  0  0
   13.6031   99.2043   57.4021 C   0  0  0  0  0  0  0  0  0  0  0  0
   12.3974   99.6957   57.8637 C   0  0  0  0  0  0  0  0  0  0  0  0
   11.6046   99.2532   58.8439 N   0  0  0  0  0  0  0  0  0  0  0  0
   11.4733   98.0611   59.5548 C   0  0  0  0  0  0  0  0  0  0  0  0
   10.3881   97.4850   59.7309 O   0  0  0  0  0  0  0  0  0  0  0  0
   12.5931   97.3976   60.1344 N   0  0  0  0  0  0  0  0  0  0  0  0
   12.3950   96.2651   60.9868 C   0  0  0  0  0  0  0  0  0  0  0  0
   13.3756   95.1517   60.8066 C   0  0  0  0  0  0  0  0  0  0  0  0
   13.5115   94.4806   62.0879 N   0  0  0  0  0  0  0  0  0  0  0  0
   13.9076   95.4715   63.0844 C   0  0  0  0  0  0  0  0  0  0  0  0
   12.2674   93.8324   62.4776 C   0  0  0  0  0  0  0  0  0  0  0  0
  1  2  1  0
  2  3  2  0
  3  4  1  0
  4  5  2  0
  5  6  1  0
  6  7  1  0
  6  8  2  0
  8  9  1  0
  9 10  2  0
 10 11  1  0
 11 12  2  0
 12 13  1  0
 13 14  2  0
 14 15  1  0
 15 16  1  0
 16 17  2  0
 16 18  1  0
 18 19  1  0
 19 20  1  0
 20 21  1  0
 21 22  1  0
 21 23  1  0
 15  2  1  0
 14  4  1  0
 13  8  1  0
M  CHG  2   6   1   7  -1
M  END
$$$$
