
     RDKit          3D

 20 22  0  0  0  0  0  0  0  0999 V2000
   12.6972   96.1275   60.0944 C   0  0  0  0  0  0  0  0  0  0  0  0
   11.4359   96.7054   60.2758 O   0  0  0  0  0  0  0  0  0  0  0  0
   11.1687   97.9793   59.8233 C   0  0  0  0  0  0  0  0  0  0  0  0
   10.1480   98.7499   60.3615 C   0  0  0  0  0  0  0  0  0  0  0  0
    9.9269  100.0152   59.8718 C   0  0  0  0  0  0  0  0  0  0  0  0
   10.6878  100.5486   58.8572 C   0  0  0  0  0  0  0  0  0  0  0  0
   10.6367  101.7376   58.2446 N   0  0  0  0  0  0  0  0  0  0  0  0
   11.6123  101.7305   57.3235 C   0  0  0  0  0  0  0  0  0  0  0  0
   12.2914  100.5415   57.3408 C   0  0  0  0  0  0  0  0  0  0  0  0
   13.4237  100.0841   56.5073 C   0  0  0  0  0  0  0  0  0  0  0  0
   13.0773   99.8730   55.1057 C   0  0  0  0  0  0  0  0  0  0  0  0
   11.9091   99.4318   54.8832 O   0  0  0  0  0  0  0  0  0  0  0  0
   13.8911  100.1003   53.9726 N   0  0  0  0  0  0  0  0  0  0  0  0
   13.4468   99.7609   52.6520 C   0  0  0  0  0  0  0  0  0  0  0  0
   14.5692   99.1981   51.8380 C   0  0  0  0  0  0  0  0  0  0  0  0
   15.7720   99.0736   52.5056 O   0  0  0  0  0  0  0  0  0  0  0  0
   16.1476  100.2770   53.1036 C   0  0  0  0  0  0  0  0  0  0  0  0
   15.1824  100.7083   54.1420 C   0  0  0  0  0  0  0  0  0  0  0  0
   11.7084   99.7719   58.3211 C   0  0  0  0  0  0  0  0  0  0  0  0
   11.9476   98.4815   58.8091 C   0  0  0  0  0  0  0  0  0  0  0  0
  1  2  1  0
  2  3  1  0
  3  4  2  0
  4  5  1  0
  5  6  2  0
  6  7  1  0
  7  8  1  0
  8  9  2  0
  9 10  1  0
 10 11  1  0
 11 12  2  0
 11 13  1  0
 13 14  1  0
 14 15  1  0
 15 16  1  0
 16 17  1  0
 17 18  1  0
  9 19  1  0
 19 20  2  0
 20  3  1  0
 19  6  1  0
 18 13  1  0
M  END
$$$$
