
     RDKit          3D

 29 32  0  0  0  0  0  0  0  0999 V2000
   16.9222   54.6353   10.7683 C   0  0  0  0  0  0  0  0  0  0  0  0
   16.5756   54.3774   12.1935 C   0  0  0  0  0  0  0  0  0  0  0  0
   16.6676   53.0946   12.7481 C   0  0  0  0  0  0  0  0  0  0  0  0
   16.3497   52.8519   14.0635 C   0  0  0  0  0  0  0  0  0  0  0  0
   16.4516   51.4996   14.6171 C   0  0  0  0  0  0  0  0  0  0  0  0
   16.5124   50.4537   15.0539 N   0  0  0  0  0  0  0  0  0  0  0  0
   15.9326   53.9128   14.8355 C   0  0  0  0  0  0  0  0  0  0  0  0
   15.8413   55.1753   14.2913 C   0  0  0  0  0  0  0  0  0  0  0  0
   16.1587   55.4391   12.9623 C   0  0  0  0  0  0  0  0  0  0  0  0
   16.0383   56.7996   12.4227 C   0  0  0  0  0  0  0  0  0  0  0  0
   16.8263   57.4251   11.4846 C   0  0  0  0  0  0  0  0  0  0  0  0
   16.3288   58.6697   11.3057 N   0  0  0  0  0  0  0  0  0  0  0  0
   15.2690   58.8795   12.0724 N   0  0  0  0  0  0  0  0  0  0  0  0
   14.4775   60.0834   12.1533 C   0  0  0  0  0  0  0  0  0  0  0  0
   14.0180   60.5672   13.3556 C   0  0  0  0  0  0  0  0  0  0  0  0
   13.2583   61.7197   13.4139 C   0  0  0  0  0  0  0  0  0  0  0  0
   12.9403   62.4179   12.2521 C   0  0  0  0  0  0  0  0  0  0  0  0
   12.1186   63.6430   12.3178 C   0  0  0  0  0  0  0  0  0  0  0  0
   12.5131   64.5704   13.0442 O   0  0  0  0  0  0  0  0  0  0  0  0
   10.9235   63.7649   11.5842 N   0  0  0  0  0  0  0  0  0  0  0  0
   10.0614   64.9623   11.5100 C   0  0  0  0  0  0  0  0  0  0  0  0
    9.5870   64.9150   10.0518 C   0  0  0  0  0  0  0  0  0  0  0  0
    9.4930   63.4586    9.7383 C   0  0  2  0  0  0  0  0  0  0  0  0
    8.1520   63.0718    9.8269 O   0  0  0  0  0  0  0  0  0  0  0  0
   10.3189   62.7569   10.7592 C   0  0  0  0  0  0  0  0  0  0  0  0
   13.4153   61.9067   11.0687 C   0  0  0  0  0  0  0  0  0  0  0  0
   14.1582   60.7750   11.0407 N   0  0  0  0  0  0  0  0  0  0  0  0
   15.0814   57.7412   12.7611 C   0  0  0  0  0  0  0  0  0  0  0  0
   14.0741   57.5111   13.6927 O   0  0  0  0  0  0  0  0  0  0  0  0
  1  2  1  0
  2  3  2  0
  3  4  1  0
  4  5  1  0
  5  6  3  0
  4  7  2  0
  7  8  1  0
  8  9  2  0
  9 10  1  0
 10 11  1  0
 11 12  2  0
 12 13  1  0
 13 14  1  0
 14 15  2  0
 15 16  1  0
 16 17  2  0
 17 18  1  0
 18 19  2  0
 18 20  1  0
 20 21  1  0
 21 22  1  0
 22 23  1  0
 23 24  1  1
 23 25  1  0
 17 26  1  0
 26 27  2  0
 13 28  1  0
 28 29  1  0
  9  2  1  0
 28 10  2  0
 27 14  1  0
 25 20  1  0
M  END
$$$$
